
  -OEChem-08192616593D

 18 17  0     0  0  0  0  0  0999 V2000
   -1.8942    2.1379    0.8469 H   0  0  0  0  0  0  0  0  0  0  0  0
   -1.1206    2.1227    0.0765 C   0  0  0  0  0  0  0  0  0  0  0  0
   -0.2766    1.0838    0.0411 C   0  0  0  0  0  0  0  0  0  0  0  0
    0.4816    1.0509   -0.7459 H   0  0  0  0  0  0  0  0  0  0  0  0
   -0.2819   -0.0803    0.9962 C   0  0  0  0  0  0  0  0  0  0  0  0
    0.6859   -0.1247    1.5147 H   0  0  0  0  0  0  0  0  0  0  0  0
   -1.0455    0.0796    1.7677 H   0  0  0  0  0  0  0  0  0  0  0  0
   -0.5277   -1.4349    0.3011 C   0  0  0  0  0  0  0  0  0  0  0  0
    0.2390   -1.5878   -0.4699 H   0  0  0  0  0  0  0  0  0  0  0  0
   -0.3894   -2.2383    1.0352 H   0  0  0  0  0  0  0  0  0  0  0  0
   -1.9202   -1.5483   -0.3286 C   0  0  0  0  0  0  0  0  0  0  0  0
   -2.0597   -2.5220   -0.8107 H   0  0  0  0  0  0  0  0  0  0  0  0
   -2.0785   -0.7702   -1.0820 H   0  0  0  0  0  0  0  0  0  0  0  0
   -2.7033   -1.4354    0.4308 H   0  0  0  0  0  0  0  0  0  0  0  0
   -1.1146    3.2788   -0.8883 C   0  0  0  0  0  0  0  0  0  0  0  0
   -0.4989    3.0640   -1.7674 H   0  0  0  0  0  0  0  0  0  0  0  0
   -2.1295    3.5007   -1.2395 H   0  0  0  0  0  0  0  0  0  0  0  0
   -0.7359    4.1945   -0.4160 H   0  0  0  0  0  0  0  0  0  0  0  0
  1  2  1  0  0  0  0
  2  3  2  0  0  0  0
  2 15  1  0  0  0  0
  3  4  1  0  0  0  0
  3  5  1  0  0  0  0
  5  6  1  0  0  0  0
  5  7  1  0  0  0  0
  5  8  1  0  0  0  0
  8  9  1  0  0  0  0
  8 10  1  0  0  0  0
  8 11  1  0  0  0  0
 11 12  1  0  0  0  0
 11 13  1  0  0  0  0
 11 14  1  0  0  0  0
 15 16  1  0  0  0  0
 15 17  1  0  0  0  0
 15 18  1  0  0  0  0
M  END
> <grid_ids>
[(-165,), (-150,), (-135,), (-120,), (-105,), (-90,), (-75,), (-60,), (-45,), (-30,), (-15,), (0,), (15,), (30,), (45,), (60,), (75,), (90,), (105,), (120,), (135,), (150,), (165,), (180,)]

$$$$
