
  -OEChem-08192616593D

 45 44  0     0  0  0  0  0  0999 V2000
    0.0548    2.2960    2.9233 H   0  0  0  0  0  0  0  0  0  0  0  0
   -1.0131    2.3344    2.6999 C   0  0  0  0  0  0  0  0  0  0  0  0
   -1.4945    3.4675    2.1667 C   0  0  0  0  0  0  0  0  0  0  0  0
   -0.7909    4.2849    2.0015 H   0  0  0  0  0  0  0  0  0  0  0  0
   -2.9082    3.7380    1.7145 C   0  0  0  0  0  0  0  0  0  0  0  0
   -3.6128    3.0552    2.2006 H   0  0  0  0  0  0  0  0  0  0  0  0
   -3.1911    4.7500    2.0306 H   0  0  0  0  0  0  0  0  0  0  0  0
   -3.0746    3.6335    0.1825 C   0  0  0  0  0  0  0  0  0  0  0  0
   -4.0647    4.0190   -0.0943 H   0  0  0  0  0  0  0  0  0  0  0  0
   -2.3403    4.2879   -0.3067 H   0  0  0  0  0  0  0  0  0  0  0  0
   -2.9186    2.2049   -0.3499 C   0  0  0  0  0  0  0  0  0  0  0  0
   -1.9464    1.8063   -0.0363 H   0  0  0  0  0  0  0  0  0  0  0  0
   -3.6787    1.5626    0.1170 H   0  0  0  0  0  0  0  0  0  0  0  0
   -3.0391    2.1005   -1.8737 C   0  0  0  0  0  0  0  0  0  0  0  0
   -2.2763    2.7374   -2.3425 H   0  0  0  0  0  0  0  0  0  0  0  0
   -4.0104    2.5020   -2.1946 H   0  0  0  0  0  0  0  0  0  0  0  0
   -2.8877    0.6651   -2.3905 C   0  0  0  0  0  0  0  0  0  0  0  0
   -1.9175    0.2637   -2.0655 H   0  0  0  0  0  0  0  0  0  0  0  0
   -3.6511    0.0284   -1.9215 H   0  0  0  0  0  0  0  0  0  0  0  0
   -2.9985    0.5456   -3.9149 C   0  0  0  0  0  0  0  0  0  0  0  0
   -2.2340    1.1793   -4.3836 H   0  0  0  0  0  0  0  0  0  0  0  0
   -3.9678    0.9468   -4.2395 H   0  0  0  0  0  0  0  0  0  0  0  0
   -2.8470   -0.8951   -4.4164 C   0  0  0  0  0  0  0  0  0  0  0  0
   -2.9297   -0.9517   -5.5073 H   0  0  0  0  0  0  0  0  0  0  0  0
   -3.6196   -1.5451   -3.9891 H   0  0  0  0  0  0  0  0  0  0  0  0
   -1.8728   -1.3109   -4.1336 H   0  0  0  0  0  0  0  0  0  0  0  0
   -1.7658    1.0535    2.9552 C   0  0  0  0  0  0  0  0  0  0  0  0
   -2.7455    1.0809    2.4698 H   0  0  0  0  0  0  0  0  0  0  0  0
   -1.9434    0.9278    4.0331 H   0  0  0  0  0  0  0  0  0  0  0  0
   -1.0023   -0.1745    2.4293 C   0  0  0  0  0  0  0  0  0  0  0  0
   -0.8022   -0.0363    1.3587 H   0  0  0  0  0  0  0  0  0  0  0  0
   -0.0209   -0.2333    2.9192 H   0  0  0  0  0  0  0  0  0  0  0  0
   -1.7596   -1.4897    2.6389 C   0  0  0  0  0  0  0  0  0  0  0  0
   -2.7443   -1.4201    2.1563 H   0  0  0  0  0  0  0  0  0  0  0  0
   -1.9553   -1.6316    3.7109 H   0  0  0  0  0  0  0  0  0  0  0  0
   -1.0148   -2.7120    2.0908 C   0  0  0  0  0  0  0  0  0  0  0  0
   -0.8173   -2.5651    1.0198 H   0  0  0  0  0  0  0  0  0  0  0  0
   -0.0304   -2.7855    2.5737 H   0  0  0  0  0  0  0  0  0  0  0  0
   -1.7739   -4.0295    2.2877 C   0  0  0  0  0  0  0  0  0  0  0  0
   -1.9693   -4.1781    3.3580 H   0  0  0  0  0  0  0  0  0  0  0  0
   -2.7578   -3.9547    1.8058 H   0  0  0  0  0  0  0  0  0  0  0  0
   -1.0226   -5.2441    1.7307 C   0  0  0  0  0  0  0  0  0  0  0  0
   -1.5869   -6.1704    1.8844 H   0  0  0  0  0  0  0  0  0  0  0  0
   -0.8430   -5.1374    0.6545 H   0  0  0  0  0  0  0  0  0  0  0  0
   -0.0477   -5.3626    2.2178 H   0  0  0  0  0  0  0  0  0  0  0  0
  1  2  1  0  0  0  0
  2  3  2  0  0  0  0
  2 27  1  0  0  0  0
  3  4  1  0  0  0  0
  3  5  1  0  0  0  0
  5  6  1  0  0  0  0
  5  7  1  0  0  0  0
  5  8  1  0  0  0  0
  8  9  1  0  0  0  0
  8 10  1  0  0  0  0
  8 11  1  0  0  0  0
 11 12  1  0  0  0  0
 11 13  1  0  0  0  0
 11 14  1  0  0  0  0
 14 15  1  0  0  0  0
 14 16  1  0  0  0  0
 14 17  1  0  0  0  0
 17 18  1  0  0  0  0
 17 19  1  0  0  0  0
 17 20  1  0  0  0  0
 20 21  1  0  0  0  0
 20 22  1  0  0  0  0
 20 23  1  0  0  0  0
 23 24  1  0  0  0  0
 23 25  1  0  0  0  0
 23 26  1  0  0  0  0
 27 28  1  0  0  0  0
 27 29  1  0  0  0  0
 27 30  1  0  0  0  0
 30 31  1  0  0  0  0
 30 32  1  0  0  0  0
 30 33  1  0  0  0  0
 33 34  1  0  0  0  0
 33 35  1  0  0  0  0
 33 36  1  0  0  0  0
 36 37  1  0  0  0  0
 36 38  1  0  0  0  0
 36 39  1  0  0  0  0
 39 40  1  0  0  0  0
 39 41  1  0  0  0  0
 39 42  1  0  0  0  0
 42 43  1  0  0  0  0
 42 44  1  0  0  0  0
 42 45  1  0  0  0  0
M  END
> <grid_ids>
[(-165,), (-150,), (-135,), (-120,), (-105,), (-90,), (-75,), (-60,), (-45,), (-30,), (-15,), (0,), (15,), (30,), (45,), (60,), (75,), (90,), (105,), (120,), (135,), (150,), (165,), (180,)]

$$$$
