
  -OEChem-08192616593D

 23 22  0     0  0  0  0  0  0999 V2000
    1.3826    1.0756   -1.8708 C   0  0  0  0  0  0  0  0  0  0  0  0
    1.4440   -0.3935   -1.4311 C   0  0  0  0  0  0  0  0  0  0  0  0
    2.6284   -0.6957   -0.5051 C   0  0  0  0  0  0  0  0  0  0  0  0
    2.7125   -2.1660   -0.0802 C   0  0  0  0  0  0  0  0  0  0  0  0
    3.8877   -2.4638    0.8579 C   0  0  0  0  0  0  0  0  0  0  0  0
    3.9730   -3.9345    1.2834 C   0  0  0  0  0  0  0  0  0  0  0  0
    5.1513   -4.2212    2.2210 C   0  0  0  0  0  0  0  0  0  0  0  0
    0.4077    1.3270   -2.3024 H   0  0  0  0  0  0  0  0  0  0  0  0
    2.1587    1.3102   -2.6075 H   0  0  0  0  0  0  0  0  0  0  0  0
    1.5315    1.7426   -1.0129 H   0  0  0  0  0  0  0  0  0  0  0  0
    1.4889   -1.0444   -2.3139 H   0  0  0  0  0  0  0  0  0  0  0  0
    0.5147   -0.6555   -0.9080 H   0  0  0  0  0  0  0  0  0  0  0  0
    3.5648   -0.4077   -1.0039 H   0  0  0  0  0  0  0  0  0  0  0  0
    2.5541   -0.0620    0.3893 H   0  0  0  0  0  0  0  0  0  0  0  0
    1.7734   -2.4554    0.4118 H   0  0  0  0  0  0  0  0  0  0  0  0
    2.7937   -2.7984   -0.9752 H   0  0  0  0  0  0  0  0  0  0  0  0
    3.8068   -1.8323    1.7536 H   0  0  0  0  0  0  0  0  0  0  0  0
    4.8272   -2.1743    0.3666 H   0  0  0  0  0  0  0  0  0  0  0  0
    3.0346   -4.2234    1.7751 H   0  0  0  0  0  0  0  0  0  0  0  0
    4.0548   -4.5655    0.3884 H   0  0  0  0  0  0  0  0  0  0  0  0
    5.1879   -5.2776    2.5087 H   0  0  0  0  0  0  0  0  0  0  0  0
    6.1060   -3.9725    1.7428 H   0  0  0  0  0  0  0  0  0  0  0  0
    5.0783   -3.6276    3.1398 H   0  0  0  0  0  0  0  0  0  0  0  0
  1  2  1  0  0  0  0
  1  8  1  0  0  0  0
  1  9  1  0  0  0  0
  1 10  1  0  0  0  0
  2  3  1  0  0  0  0
  2 11  1  0  0  0  0
  2 12  1  0  0  0  0
  3  4  1  0  0  0  0
  3 13  1  0  0  0  0
  3 14  1  0  0  0  0
  4  5  1  0  0  0  0
  4 15  1  0  0  0  0
  4 16  1  0  0  0  0
  5  6  1  0  0  0  0
  5 17  1  0  0  0  0
  5 18  1  0  0  0  0
  6  7  1  0  0  0  0
  6 19  1  0  0  0  0
  6 20  1  0  0  0  0
  7 21  1  0  0  0  0
  7 22  1  0  0  0  0
  7 23  1  0  0  0  0
M  END
> <grid_ids>
[(-165,), (-150,), (-135,), (-120,), (-105,), (-90,), (-75,), (-60,), (-45,), (-30,), (-15,), (0,), (15,), (30,), (45,), (60,), (75,), (90,), (105,), (120,), (135,), (150,), (165,), (180,)]

$$$$
