
  -OEChem-08192616593D

 18 17  0     0  0  0  0  0  0999 V2000
    0.1031    4.3088   -0.2926 C   0  0  0  0  0  0  0  0  0  0  0  0
    0.5590    2.8700   -0.0304 C   0  0  0  0  0  0  0  0  0  0  0  0
    0.2658    1.9268   -1.2052 C   0  0  0  0  0  0  0  0  0  0  0  0
    0.7011    0.5001   -0.9468 C   0  0  0  0  0  0  0  0  0  0  0  0
    0.8289   -0.4517   -1.8796 C   0  0  0  0  0  0  0  0  0  0  0  0
    1.2178   -1.8803   -1.6111 C   0  0  0  0  0  0  0  0  0  0  0  0
    0.3181    4.9592    0.5620 H   0  0  0  0  0  0  0  0  0  0  0  0
    0.6100    4.7305   -1.1684 H   0  0  0  0  0  0  0  0  0  0  0  0
   -0.9758    4.3527   -0.4827 H   0  0  0  0  0  0  0  0  0  0  0  0
    0.0614    2.4850    0.8693 H   0  0  0  0  0  0  0  0  0  0  0  0
    1.6353    2.8570    0.1852 H   0  0  0  0  0  0  0  0  0  0  0  0
    0.7451    2.3071   -2.1161 H   0  0  0  0  0  0  0  0  0  0  0  0
   -0.8159    1.9471   -1.4019 H   0  0  0  0  0  0  0  0  0  0  0  0
    0.8769    0.2307    0.0973 H   0  0  0  0  0  0  0  0  0  0  0  0
    0.6467   -0.1900   -2.9246 H   0  0  0  0  0  0  0  0  0  0  0  0
    0.4361   -2.5734   -1.9476 H   0  0  0  0  0  0  0  0  0  0  0  0
    2.1338   -2.1512   -2.1514 H   0  0  0  0  0  0  0  0  0  0  0  0
    1.3885   -2.0542   -0.5440 H   0  0  0  0  0  0  0  0  0  0  0  0
  1  2  1  0  0  0  0
  1  7  1  0  0  0  0
  1  8  1  0  0  0  0
  1  9  1  0  0  0  0
  2  3  1  0  0  0  0
  2 10  1  0  0  0  0
  2 11  1  0  0  0  0
  3  4  1  0  0  0  0
  3 12  1  0  0  0  0
  3 13  1  0  0  0  0
  4  5  2  0  0  0  0
  4 14  1  0  0  0  0
  5  6  1  0  0  0  0
  5 15  1  0  0  0  0
  6 16  1  0  0  0  0
  6 17  1  0  0  0  0
  6 18  1  0  0  0  0
M  END
> <grid_ids>
[(-165,), (-150,), (-135,), (-120,), (-105,), (-90,), (-75,), (-60,), (-45,), (-30,), (-15,), (0,), (15,), (30,), (45,), (60,), (75,), (90,), (105,), (120,), (135,), (150,), (165,), (180,)]

$$$$
