
  -OEChem-08192616593D

 18 17  0     0  0  0  0  0  0999 V2000
    0.1171    4.2856   -0.2213 C   0  0  0  0  0  0  0  0  0  0  0  0
    0.7129    2.8737   -0.1990 C   0  0  0  0  0  0  0  0  0  0  0  0
    0.0253    1.9166   -1.1921 C   0  0  0  0  0  0  0  0  0  0  0  0
    0.3460    0.4696   -0.9311 C   0  0  0  0  0  0  0  0  0  0  0  0
    0.9847   -0.3492   -1.7767 C   0  0  0  0  0  0  0  0  0  0  0  0
    1.3141   -1.7923   -1.5061 C   0  0  0  0  0  0  0  0  0  0  0  0
    0.6359    4.9499    0.4783 H   0  0  0  0  0  0  0  0  0  0  0  0
    0.1887    4.7328   -1.2199 H   0  0  0  0  0  0  0  0  0  0  0  0
   -0.9429    4.2676    0.0571 H   0  0  0  0  0  0  0  0  0  0  0  0
    0.6206    2.4625    0.8147 H   0  0  0  0  0  0  0  0  0  0  0  0
    1.7872    2.9070   -0.4164 H   0  0  0  0  0  0  0  0  0  0  0  0
    0.2974    2.1854   -2.2198 H   0  0  0  0  0  0  0  0  0  0  0  0
   -1.0623    2.0593   -1.1104 H   0  0  0  0  0  0  0  0  0  0  0  0
    0.0368    0.0812    0.0425 H   0  0  0  0  0  0  0  0  0  0  0  0
    1.2970    0.0442   -2.7465 H   0  0  0  0  0  0  0  0  0  0  0  0
    0.8514   -2.4511   -2.2518 H   0  0  0  0  0  0  0  0  0  0  0  0
    2.3962   -1.9675   -1.5577 H   0  0  0  0  0  0  0  0  0  0  0  0
    0.9667   -2.1036   -0.5160 H   0  0  0  0  0  0  0  0  0  0  0  0
  1  2  1  0  0  0  0
  1  7  1  0  0  0  0
  1  8  1  0  0  0  0
  1  9  1  0  0  0  0
  2  3  1  0  0  0  0
  2 10  1  0  0  0  0
  2 11  1  0  0  0  0
  3  4  1  0  0  0  0
  3 12  1  0  0  0  0
  3 13  1  0  0  0  0
  4  5  2  0  0  0  0
  4 14  1  0  0  0  0
  5  6  1  0  0  0  0
  5 15  1  0  0  0  0
  6 16  1  0  0  0  0
  6 17  1  0  0  0  0
  6 18  1  0  0  0  0
M  END
> <grid_ids>
[(-165,), (-150,), (-135,), (-120,), (-105,), (-90,), (-75,), (-60,), (-45,), (-30,), (-15,), (0,), (15,), (30,), (45,), (60,), (75,), (90,), (105,), (120,), (135,), (150,), (165,), (180,)]

$$$$
