
  -OEChem-08192616593D

 17 16  0     0  0  0  0  0  0999 V2000
   -0.5273    0.9093   -0.3064 C   0  0  0  0  0  0  0  0  0  0  0  0
   -0.5750    0.9653   -1.8394 C   0  0  0  0  0  0  0  0  0  0  0  0
    0.8150    0.9384   -2.4863 C   0  0  0  0  0  0  0  0  0  0  0  0
    0.7802    1.0192   -4.0169 C   0  0  0  0  0  0  0  0  0  0  0  0
    2.1743    0.9760   -4.6529 C   0  0  0  0  0  0  0  0  0  0  0  0
   -1.5069    0.6656    0.1188 H   0  0  0  0  0  0  0  0  0  0  0  0
   -0.1895    1.8589    0.1229 H   0  0  0  0  0  0  0  0  0  0  0  0
    0.1677    0.1306    0.0307 H   0  0  0  0  0  0  0  0  0  0  0  0
   -1.1535    0.1115   -2.2164 H   0  0  0  0  0  0  0  0  0  0  0  0
   -1.1159    1.8644   -2.1620 H   0  0  0  0  0  0  0  0  0  0  0  0
    1.3338    0.0183   -2.1831 H   0  0  0  0  0  0  0  0  0  0  0  0
    1.4178    1.7697   -2.0934 H   0  0  0  0  0  0  0  0  0  0  0  0
    0.1729    0.1922   -4.4085 H   0  0  0  0  0  0  0  0  0  0  0  0
    0.2682    1.9426   -4.3187 H   0  0  0  0  0  0  0  0  0  0  0  0
    2.1193    1.0357   -5.7454 H   0  0  0  0  0  0  0  0  0  0  0  0
    2.6971    0.0474   -4.3954 H   0  0  0  0  0  0  0  0  0  0  0  0
    2.7934    1.8107   -4.3038 H   0  0  0  0  0  0  0  0  0  0  0  0
  1  2  1  0  0  0  0
  1  6  1  0  0  0  0
  1  7  1  0  0  0  0
  1  8  1  0  0  0  0
  2  3  1  0  0  0  0
  2  9  1  0  0  0  0
  2 10  1  0  0  0  0
  3  4  1  0  0  0  0
  3 11  1  0  0  0  0
  3 12  1  0  0  0  0
  4  5  1  0  0  0  0
  4 13  1  0  0  0  0
  4 14  1  0  0  0  0
  5 15  1  0  0  0  0
  5 16  1  0  0  0  0
  5 17  1  0  0  0  0
M  END
> <grid_ids>
[(-165,), (-150,), (-135,), (-120,), (-105,), (-90,), (-75,), (-60,), (-45,), (-30,), (-15,), (0,), (15,), (30,), (45,), (60,), (75,), (90,), (105,), (120,), (135,), (150,), (165,), (180,)]

$$$$
