
  -OEChem-08192616593D

 15 14  0     0  0  0  0  0  0999 V2000
    4.2320   -4.0488   -0.0484 C   0  0  0  0  0  0  0  0  0  0  0  0
    3.3448   -2.8670   -0.4547 C   0  0  0  0  0  0  0  0  0  0  0  0
    2.0249   -2.8087    0.3389 C   0  0  0  0  0  0  0  0  0  0  0  0
    1.0082   -1.8918   -0.2847 C   0  0  0  0  0  0  0  0  0  0  0  0
    0.4921   -0.7990    0.2897 C   0  0  0  0  0  0  0  0  0  0  0  0
    5.1711   -4.0553   -0.6122 H   0  0  0  0  0  0  0  0  0  0  0  0
    3.7234   -5.0020   -0.2332 H   0  0  0  0  0  0  0  0  0  0  0  0
    4.4842   -4.0098    1.0179 H   0  0  0  0  0  0  0  0  0  0  0  0
    3.8837   -1.9208   -0.3266 H   0  0  0  0  0  0  0  0  0  0  0  0
    3.1148   -2.9439   -1.5254 H   0  0  0  0  0  0  0  0  0  0  0  0
    2.2213   -2.5079    1.3747 H   0  0  0  0  0  0  0  0  0  0  0  0
    1.6026   -3.8234    0.3812 H   0  0  0  0  0  0  0  0  0  0  0  0
    0.6920   -2.1537   -1.2966 H   0  0  0  0  0  0  0  0  0  0  0  0
   -0.2359   -0.1741   -0.2221 H   0  0  0  0  0  0  0  0  0  0  0  0
    0.7806   -0.4955    1.2950 H   0  0  0  0  0  0  0  0  0  0  0  0
  1  2  1  0  0  0  0
  1  6  1  0  0  0  0
  1  7  1  0  0  0  0
  1  8  1  0  0  0  0
  2  3  1  0  0  0  0
  2  9  1  0  0  0  0
  2 10  1  0  0  0  0
  3  4  1  0  0  0  0
  3 11  1  0  0  0  0
  3 12  1  0  0  0  0
  4  5  2  0  0  0  0
  4 13  1  0  0  0  0
  5 14  1  0  0  0  0
  5 15  1  0  0  0  0
M  END
> <grid_ids>
[(-165,), (-150,), (-135,), (-120,), (-105,), (-90,), (-75,), (-60,), (-45,), (-30,), (-15,), (0,), (15,), (30,), (45,), (60,), (75,), (90,), (105,), (120,), (135,), (150,), (165,), (180,)]

$$$$
