
  -OEChem-08192616593D

 18 17  0     0  0  0  0  0  0999 V2000
   -0.2222    3.8636   -0.3397 C   0  0  0  0  0  0  0  0  0  0  0  0
    0.2207    2.4423    0.0239 C   0  0  0  0  0  0  0  0  0  0  0  0
   -0.6162    1.3589   -0.6831 C   0  0  0  0  0  0  0  0  0  0  0  0
   -0.1393   -0.0338   -0.3669 C   0  0  0  0  0  0  0  0  0  0  0  0
   -0.7778   -0.9802    0.3387 C   0  0  0  0  0  0  0  0  0  0  0  0
   -2.1452   -0.8915    0.9658 C   0  0  0  0  0  0  0  0  0  0  0  0
    0.3837    4.6154    0.1775 H   0  0  0  0  0  0  0  0  0  0  0  0
   -0.1294    4.0433   -1.4172 H   0  0  0  0  0  0  0  0  0  0  0  0
   -1.2700    4.0336   -0.0655 H   0  0  0  0  0  0  0  0  0  0  0  0
    0.1495    2.2936    1.1082 H   0  0  0  0  0  0  0  0  0  0  0  0
    1.2788    2.3079   -0.2349 H   0  0  0  0  0  0  0  0  0  0  0  0
   -0.5539    1.5227   -1.7683 H   0  0  0  0  0  0  0  0  0  0  0  0
   -1.6691    1.4861   -0.4113 H   0  0  0  0  0  0  0  0  0  0  0  0
    0.8571   -0.2757   -0.7408 H   0  0  0  0  0  0  0  0  0  0  0  0
   -0.2643   -1.9322    0.4772 H   0  0  0  0  0  0  0  0  0  0  0  0
   -2.7275   -0.0447    0.5950 H   0  0  0  0  0  0  0  0  0  0  0  0
   -2.7201   -1.8026    0.7632 H   0  0  0  0  0  0  0  0  0  0  0  0
   -2.0723   -0.8006    2.0574 H   0  0  0  0  0  0  0  0  0  0  0  0
  1  2  1  0  0  0  0
  1  7  1  0  0  0  0
  1  8  1  0  0  0  0
  1  9  1  0  0  0  0
  2  3  1  0  0  0  0
  2 10  1  0  0  0  0
  2 11  1  0  0  0  0
  3  4  1  0  0  0  0
  3 12  1  0  0  0  0
  3 13  1  0  0  0  0
  4  5  2  0  0  0  0
  4 14  1  0  0  0  0
  5  6  1  0  0  0  0
  5 15  1  0  0  0  0
  6 16  1  0  0  0  0
  6 17  1  0  0  0  0
  6 18  1  0  0  0  0
M  END
> <grid_ids>
[(-165,), (-150,), (-135,), (-120,), (-105,), (-90,), (-75,), (-60,), (-45,), (-30,), (-15,), (0,), (15,), (30,), (45,), (60,), (75,), (90,), (105,), (120,), (135,), (150,), (165,), (180,)]

$$$$
