
  -OEChem-08192616593D

 18 17  0     0  0  0  0  0  0999 V2000
    1.8642    1.7005    0.2029 H   0  0  0  0  0  0  0  0  0  0  0  0
    0.9371    1.8102   -0.3647 C   0  0  0  0  0  0  0  0  0  0  0  0
    0.0243    0.8331   -0.2995 C   0  0  0  0  0  0  0  0  0  0  0  0
   -0.9042    0.9518   -0.8630 H   0  0  0  0  0  0  0  0  0  0  0  0
    0.1369   -0.4158    0.5487 C   0  0  0  0  0  0  0  0  0  0  0  0
    1.1589   -0.8122    0.5004 H   0  0  0  0  0  0  0  0  0  0  0  0
   -0.0371   -0.1564    1.6030 H   0  0  0  0  0  0  0  0  0  0  0  0
   -0.8644   -1.5088    0.1504 C   0  0  0  0  0  0  0  0  0  0  0  0
   -1.8820   -1.1025    0.2179 H   0  0  0  0  0  0  0  0  0  0  0  0
   -0.7100   -1.7755   -0.9032 H   0  0  0  0  0  0  0  0  0  0  0  0
   -0.7545   -2.7642    1.0213 C   0  0  0  0  0  0  0  0  0  0  0  0
   -1.4825   -3.5253    0.7206 H   0  0  0  0  0  0  0  0  0  0  0  0
   -0.9338   -2.5293    2.0771 H   0  0  0  0  0  0  0  0  0  0  0  0
    0.2442   -3.2103    0.9474 H   0  0  0  0  0  0  0  0  0  0  0  0
    0.7995    3.0711   -1.1743 C   0  0  0  0  0  0  0  0  0  0  0  0
    1.6112    3.1637   -1.9071 H   0  0  0  0  0  0  0  0  0  0  0  0
   -0.1515    3.0967   -1.7155 H   0  0  0  0  0  0  0  0  0  0  0  0
    0.8499    3.9606   -0.5334 H   0  0  0  0  0  0  0  0  0  0  0  0
  1  2  1  0  0  0  0
  2  3  2  0  0  0  0
  2 15  1  0  0  0  0
  3  4  1  0  0  0  0
  3  5  1  0  0  0  0
  5  6  1  0  0  0  0
  5  7  1  0  0  0  0
  5  8  1  0  0  0  0
  8  9  1  0  0  0  0
  8 10  1  0  0  0  0
  8 11  1  0  0  0  0
 11 12  1  0  0  0  0
 11 13  1  0  0  0  0
 11 14  1  0  0  0  0
 15 16  1  0  0  0  0
 15 17  1  0  0  0  0
 15 18  1  0  0  0  0
M  END
> <grid_ids>
[(-165,), (-150,), (-135,), (-120,), (-105,), (-90,), (-75,), (-60,), (-45,), (-30,), (-15,), (0,), (15,), (30,), (45,), (60,), (75,), (90,), (105,), (120,), (135,), (150,), (165,), (180,)]

$$$$
