
  -OEChem-08192616593D

 15 14  0     0  0  0  0  0  0999 V2000
    4.2329   -4.0616   -0.0170 C   0  0  0  0  0  0  0  0  0  0  0  0
    3.3427   -2.9295   -0.5406 C   0  0  0  0  0  0  0  0  0  0  0  0
    2.0407   -2.7751    0.2649 C   0  0  0  0  0  0  0  0  0  0  0  0
    1.1184   -1.7115   -0.2663 C   0  0  0  0  0  0  0  0  0  0  0  0
    0.5798   -0.7198    0.4535 C   0  0  0  0  0  0  0  0  0  0  0  0
    5.1537   -4.1498   -0.6036 H   0  0  0  0  0  0  0  0  0  0  0  0
    3.7138   -5.0262   -0.0630 H   0  0  0  0  0  0  0  0  0  0  0  0
    4.5181   -3.8893    1.0274 H   0  0  0  0  0  0  0  0  0  0  0  0
    3.8923   -1.9807   -0.5153 H   0  0  0  0  0  0  0  0  0  0  0  0
    3.0954   -3.1132   -1.5944 H   0  0  0  0  0  0  0  0  0  0  0  0
    2.2764   -2.5702    1.3164 H   0  0  0  0  0  0  0  0  0  0  0  0
    1.5000   -3.7325    0.2463 H   0  0  0  0  0  0  0  0  0  0  0  0
    0.7921   -1.8404   -1.3009 H   0  0  0  0  0  0  0  0  0  0  0  0
   -0.2552   -0.1298    0.0831 H   0  0  0  0  0  0  0  0  0  0  0  0
    0.8538   -0.5701    1.4974 H   0  0  0  0  0  0  0  0  0  0  0  0
  1  2  1  0  0  0  0
  1  6  1  0  0  0  0
  1  7  1  0  0  0  0
  1  8  1  0  0  0  0
  2  3  1  0  0  0  0
  2  9  1  0  0  0  0
  2 10  1  0  0  0  0
  3  4  1  0  0  0  0
  3 11  1  0  0  0  0
  3 12  1  0  0  0  0
  4  5  2  0  0  0  0
  4 13  1  0  0  0  0
  5 14  1  0  0  0  0
  5 15  1  0  0  0  0
M  END
> <grid_ids>
[(-165,), (-150,), (-135,), (-120,), (-105,), (-90,), (90,), (105,), (120,), (135,), (150,), (165,), (180,)]

$$$$
