
  -OEChem-08192616593D

 18 17  0     0  0  0  0  0  0999 V2000
    1.9076    1.4279    0.3328 H   0  0  0  0  0  0  0  0  0  0  0  0
    0.9770    1.8904    0.0025 C   0  0  0  0  0  0  0  0  0  0  0  0
   -0.1746    1.3717    0.4526 C   0  0  0  0  0  0  0  0  0  0  0  0
   -0.1146    0.5072    1.1153 H   0  0  0  0  0  0  0  0  0  0  0  0
   -1.5722    1.8437    0.1138 C   0  0  0  0  0  0  0  0  0  0  0  0
   -1.6181    2.9399    0.1257 H   0  0  0  0  0  0  0  0  0  0  0  0
   -1.8245    1.5451   -0.9143 H   0  0  0  0  0  0  0  0  0  0  0  0
   -2.6388    1.2833    1.0647 C   0  0  0  0  0  0  0  0  0  0  0  0
   -2.6023    0.1864    1.0388 H   0  0  0  0  0  0  0  0  0  0  0  0
   -2.3924    1.5742    2.0939 H   0  0  0  0  0  0  0  0  0  0  0  0
   -4.0535    1.7582    0.7187 C   0  0  0  0  0  0  0  0  0  0  0  0
   -4.7955    1.3425    1.4088 H   0  0  0  0  0  0  0  0  0  0  0  0
   -4.3347    1.4546   -0.2965 H   0  0  0  0  0  0  0  0  0  0  0  0
   -4.1269    2.8509    0.7688 H   0  0  0  0  0  0  0  0  0  0  0  0
    1.1254    3.0617   -0.9314 C   0  0  0  0  0  0  0  0  0  0  0  0
    1.6366    2.7595   -1.8544 H   0  0  0  0  0  0  0  0  0  0  0  0
    0.1633    3.4975   -1.2112 H   0  0  0  0  0  0  0  0  0  0  0  0
    1.7378    3.8508   -0.4771 H   0  0  0  0  0  0  0  0  0  0  0  0
  1  2  1  0  0  0  0
  2  3  2  0  0  0  0
  2 15  1  0  0  0  0
  3  4  1  0  0  0  0
  3  5  1  0  0  0  0
  5  6  1  0  0  0  0
  5  7  1  0  0  0  0
  5  8  1  0  0  0  0
  8  9  1  0  0  0  0
  8 10  1  0  0  0  0
  8 11  1  0  0  0  0
 11 12  1  0  0  0  0
 11 13  1  0  0  0  0
 11 14  1  0  0  0  0
 15 16  1  0  0  0  0
 15 17  1  0  0  0  0
 15 18  1  0  0  0  0
M  END
> <grid_ids>
[(-165,), (-150,), (-135,), (-120,), (-105,), (-90,), (-75,), (-60,), (-45,), (-30,), (-15,), (0,), (15,), (30,), (45,), (60,), (75,), (90,), (105,), (120,), (135,), (150,), (165,), (180,)]

$$$$
