
  -OEChem-08192616593D

 18 17  0     0  0  0  0  0  0999 V2000
    0.8884    4.4440   -0.7654 C   0  0  0  0  0  0  0  0  0  0  0  0
    1.2944    2.9908   -0.5014 C   0  0  0  0  0  0  0  0  0  0  0  0
    0.0925    2.0751   -0.2310 C   0  0  0  0  0  0  0  0  0  0  0  0
    0.4938    0.6399    0.0336 C   0  0  0  0  0  0  0  0  0  0  0  0
   -0.3114   -0.4321    0.0236 C   0  0  0  0  0  0  0  0  0  0  0  0
   -1.7894   -0.4377   -0.2619 C   0  0  0  0  0  0  0  0  0  0  0  0
    1.7628    5.0768   -0.9517 H   0  0  0  0  0  0  0  0  0  0  0  0
    0.2309    4.5182   -1.6395 H   0  0  0  0  0  0  0  0  0  0  0  0
    0.3480    4.8649    0.0907 H   0  0  0  0  0  0  0  0  0  0  0  0
    1.9773    2.9498    0.3572 H   0  0  0  0  0  0  0  0  0  0  0  0
    1.8573    2.6024   -1.3598 H   0  0  0  0  0  0  0  0  0  0  0  0
   -0.5994    2.1275   -1.0809 H   0  0  0  0  0  0  0  0  0  0  0  0
   -0.4636    2.4691    0.6321 H   0  0  0  0  0  0  0  0  0  0  0  0
    1.5453    0.4796    0.2760 H   0  0  0  0  0  0  0  0  0  0  0  0
    0.1308   -1.4037    0.2461 H   0  0  0  0  0  0  0  0  0  0  0  0
   -2.0239   -1.0999   -1.1050 H   0  0  0  0  0  0  0  0  0  0  0  0
   -2.3498   -0.8183    0.6016 H   0  0  0  0  0  0  0  0  0  0  0  0
   -2.1738    0.5581   -0.4955 H   0  0  0  0  0  0  0  0  0  0  0  0
  1  2  1  0  0  0  0
  1  7  1  0  0  0  0
  1  8  1  0  0  0  0
  1  9  1  0  0  0  0
  2  3  1  0  0  0  0
  2 10  1  0  0  0  0
  2 11  1  0  0  0  0
  3  4  1  0  0  0  0
  3 12  1  0  0  0  0
  3 13  1  0  0  0  0
  4  5  2  0  0  0  0
  4 14  1  0  0  0  0
  5  6  1  0  0  0  0
  5 15  1  0  0  0  0
  6 16  1  0  0  0  0
  6 17  1  0  0  0  0
  6 18  1  0  0  0  0
M  END
> <grid_ids>
[(-165,), (-150,), (-135,), (-120,), (-105,), (-90,), (-75,), (-60,), (-45,), (-30,), (-15,), (0,), (15,), (30,), (45,), (60,), (75,), (90,), (105,), (120,), (135,), (150,), (165,), (180,)]

$$$$
