
  -OEChem-08192616593D

 18 17  0     0  0  0  0  0  0999 V2000
    0.2124    4.2941   -0.3009 C   0  0  0  0  0  0  0  0  0  0  0  0
    0.7818    2.8723   -0.2419 C   0  0  0  0  0  0  0  0  0  0  0  0
   -0.0936    1.8496   -0.9963 C   0  0  0  0  0  0  0  0  0  0  0  0
    0.2503    0.4256   -0.6478 C   0  0  0  0  0  0  0  0  0  0  0  0
   -0.5262   -0.4829   -0.0371 C   0  0  0  0  0  0  0  0  0  0  0  0
   -1.9464   -0.3169    0.4352 C   0  0  0  0  0  0  0  0  0  0  0  0
    0.8584    5.0055    0.2251 H   0  0  0  0  0  0  0  0  0  0  0  0
    0.1087    4.6407   -1.3361 H   0  0  0  0  0  0  0  0  0  0  0  0
   -0.7797    4.3366    0.1629 H   0  0  0  0  0  0  0  0  0  0  0  0
    0.8612    2.5608    0.8067 H   0  0  0  0  0  0  0  0  0  0  0  0
    1.8018    2.8545   -0.6458 H   0  0  0  0  0  0  0  0  0  0  0  0
    0.0256    2.0053   -2.0774 H   0  0  0  0  0  0  0  0  0  0  0  0
   -1.1459    2.0531   -0.7731 H   0  0  0  0  0  0  0  0  0  0  0  0
    1.2643    0.1176   -0.9099 H   0  0  0  0  0  0  0  0  0  0  0  0
   -0.0917   -1.4661    0.1480 H   0  0  0  0  0  0  0  0  0  0  0  0
   -2.6074   -1.0371   -0.0631 H   0  0  0  0  0  0  0  0  0  0  0  0
   -2.0204   -0.5152    1.5119 H   0  0  0  0  0  0  0  0  0  0  0  0
   -2.3429    0.6841    0.2513 H   0  0  0  0  0  0  0  0  0  0  0  0
  1  2  1  0  0  0  0
  1  7  1  0  0  0  0
  1  8  1  0  0  0  0
  1  9  1  0  0  0  0
  2  3  1  0  0  0  0
  2 10  1  0  0  0  0
  2 11  1  0  0  0  0
  3  4  1  0  0  0  0
  3 12  1  0  0  0  0
  3 13  1  0  0  0  0
  4  5  2  0  0  0  0
  4 14  1  0  0  0  0
  5  6  1  0  0  0  0
  5 15  1  0  0  0  0
  6 16  1  0  0  0  0
  6 17  1  0  0  0  0
  6 18  1  0  0  0  0
M  END
> <grid_ids>
[(-165,), (-150,), (-135,), (-120,), (-105,), (-90,), (-75,), (-60,), (-45,), (-30,), (-15,), (0,), (15,), (30,), (45,), (60,), (75,), (90,), (105,), (120,), (135,), (150,), (165,), (180,)]

$$$$
