
  -OEChem-08192616593D

 17 16  0     0  0  0  0  0  0999 V2000
   -0.5762    1.0414   -0.3577 C   0  0  0  0  0  0  0  0  0  0  0  0
   -0.5763    0.8902   -1.8833 C   0  0  0  0  0  0  0  0  0  0  0  0
    0.8339    0.8892   -2.4898 C   0  0  0  0  0  0  0  0  0  0  0  0
    0.8485    1.1053   -4.0079 C   0  0  0  0  0  0  0  0  0  0  0  0
    2.2592    1.0715   -4.6067 C   0  0  0  0  0  0  0  0  0  0  0  0
   -1.5935    1.0206    0.0483 H   0  0  0  0  0  0  0  0  0  0  0  0
   -0.1157    1.9901   -0.0592 H   0  0  0  0  0  0  0  0  0  0  0  0
   -0.0097    0.2344    0.1223 H   0  0  0  0  0  0  0  0  0  0  0  0
   -1.1001   -0.0310   -2.1696 H   0  0  0  0  0  0  0  0  0  0  0  0
   -1.1529    1.7158   -2.3218 H   0  0  0  0  0  0  0  0  0  0  0  0
    1.3410   -0.0536   -2.2432 H   0  0  0  0  0  0  0  0  0  0  0  0
    1.4282    1.6841   -2.0169 H   0  0  0  0  0  0  0  0  0  0  0  0
    0.2269    0.3397   -4.4916 H   0  0  0  0  0  0  0  0  0  0  0  0
    0.3759    2.0697   -4.2356 H   0  0  0  0  0  0  0  0  0  0  0  0
    2.2401    1.2388   -5.6892 H   0  0  0  0  0  0  0  0  0  0  0  0
    2.7415    0.1035   -4.4272 H   0  0  0  0  0  0  0  0  0  0  0  0
    2.8957    1.8448   -4.1606 H   0  0  0  0  0  0  0  0  0  0  0  0
  1  2  1  0  0  0  0
  1  6  1  0  0  0  0
  1  7  1  0  0  0  0
  1  8  1  0  0  0  0
  2  3  1  0  0  0  0
  2  9  1  0  0  0  0
  2 10  1  0  0  0  0
  3  4  1  0  0  0  0
  3 11  1  0  0  0  0
  3 12  1  0  0  0  0
  4  5  1  0  0  0  0
  4 13  1  0  0  0  0
  4 14  1  0  0  0  0
  5 15  1  0  0  0  0
  5 16  1  0  0  0  0
  5 17  1  0  0  0  0
M  END
> <grid_ids>
[(-165,), (-150,), (-135,), (-120,), (-105,), (-90,), (-75,), (-60,), (-45,), (-30,), (-15,), (0,), (15,), (30,), (45,), (60,), (75,), (90,), (105,), (120,), (135,), (150,), (165,), (180,)]

$$$$
