
  -OEChem-08192616593D

 20 19  0     0  0  0  0  0  0999 V2000
   -0.7370   -0.6659   -0.3367 C   0  0  0  0  0  0  0  0  0  0  0  0
   -0.9878   -0.5772   -1.8465 C   0  0  0  0  0  0  0  0  0  0  0  0
   -1.9857   -1.6274   -2.3548 C   0  0  0  0  0  0  0  0  0  0  0  0
   -1.9739   -1.7957   -3.8784 C   0  0  0  0  0  0  0  0  0  0  0  0
   -2.9917   -2.8226   -4.3886 C   0  0  0  0  0  0  0  0  0  0  0  0
   -2.9608   -2.9939   -5.9116 C   0  0  0  0  0  0  0  0  0  0  0  0
   -0.0361    0.1057    0.0005 H   0  0  0  0  0  0  0  0  0  0  0  0
   -0.3163   -1.6414   -0.0672 H   0  0  0  0  0  0  0  0  0  0  0  0
   -1.6677   -0.5404    0.2296 H   0  0  0  0  0  0  0  0  0  0  0  0
   -0.0329   -0.7078   -2.3732 H   0  0  0  0  0  0  0  0  0  0  0  0
   -1.3445    0.4267   -2.1100 H   0  0  0  0  0  0  0  0  0  0  0  0
   -2.9978   -1.3680   -2.0158 H   0  0  0  0  0  0  0  0  0  0  0  0
   -1.7514   -2.5967   -1.8923 H   0  0  0  0  0  0  0  0  0  0  0  0
   -0.9661   -2.0943   -4.1987 H   0  0  0  0  0  0  0  0  0  0  0  0
   -2.1689   -0.8252   -4.3567 H   0  0  0  0  0  0  0  0  0  0  0  0
   -2.8003   -3.7907   -3.9068 H   0  0  0  0  0  0  0  0  0  0  0  0
   -3.9993   -2.5200   -4.0741 H   0  0  0  0  0  0  0  0  0  0  0  0
   -3.6972   -3.7320   -6.2479 H   0  0  0  0  0  0  0  0  0  0  0  0
   -3.1809   -2.0477   -6.4197 H   0  0  0  0  0  0  0  0  0  0  0  0
   -1.9737   -3.3287   -6.2513 H   0  0  0  0  0  0  0  0  0  0  0  0
  1  2  1  0  0  0  0
  1  7  1  0  0  0  0
  1  8  1  0  0  0  0
  1  9  1  0  0  0  0
  2  3  1  0  0  0  0
  2 10  1  0  0  0  0
  2 11  1  0  0  0  0
  3  4  1  0  0  0  0
  3 12  1  0  0  0  0
  3 13  1  0  0  0  0
  4  5  1  0  0  0  0
  4 14  1  0  0  0  0
  4 15  1  0  0  0  0
  5  6  1  0  0  0  0
  5 16  1  0  0  0  0
  5 17  1  0  0  0  0
  6 18  1  0  0  0  0
  6 19  1  0  0  0  0
  6 20  1  0  0  0  0
M  END
> <grid_ids>
[(-165,), (-150,), (-135,), (-120,), (-105,), (-90,), (-75,), (-60,), (-45,), (-30,), (-15,), (0,), (15,), (30,), (45,), (60,), (75,), (90,), (105,), (120,), (135,), (150,), (165,), (180,)]

$$$$
