
  -OEChem-08192616593D

 33 32  0     0  0  0  0  0  0999 V2000
    0.5610   -2.0239   -1.1381 H   0  0  0  0  0  0  0  0  0  0  0  0
   -0.4690   -1.9936   -0.7787 C   0  0  0  0  0  0  0  0  0  0  0  0
   -1.3827   -1.4137   -1.5723 C   0  0  0  0  0  0  0  0  0  0  0  0
   -1.0346   -1.0015   -2.5213 H   0  0  0  0  0  0  0  0  0  0  0  0
   -2.8545   -1.2292   -1.3067 C   0  0  0  0  0  0  0  0  0  0  0  0
   -3.1651   -1.7867   -0.4174 H   0  0  0  0  0  0  0  0  0  0  0  0
   -3.4192   -1.6478   -2.1507 H   0  0  0  0  0  0  0  0  0  0  0  0
   -3.2532    0.2516   -1.1374 C   0  0  0  0  0  0  0  0  0  0  0  0
   -4.3483    0.3197   -1.0974 H   0  0  0  0  0  0  0  0  0  0  0  0
   -2.9418    0.8156   -2.0272 H   0  0  0  0  0  0  0  0  0  0  0  0
   -2.6572    0.9043    0.1139 C   0  0  0  0  0  0  0  0  0  0  0  0
   -2.9621    0.3288    0.9999 H   0  0  0  0  0  0  0  0  0  0  0  0
   -1.5633    0.8382    0.0712 H   0  0  0  0  0  0  0  0  0  0  0  0
   -3.0714    2.3685    0.2958 C   0  0  0  0  0  0  0  0  0  0  0  0
   -2.7651    2.9431   -0.5884 H   0  0  0  0  0  0  0  0  0  0  0  0
   -4.1667    2.4356    0.3388 H   0  0  0  0  0  0  0  0  0  0  0  0
   -2.4695    3.0057    1.5536 C   0  0  0  0  0  0  0  0  0  0  0  0
   -2.7769    4.0517    1.6614 H   0  0  0  0  0  0  0  0  0  0  0  0
   -2.7858    2.4704    2.4567 H   0  0  0  0  0  0  0  0  0  0  0  0
   -1.3740    2.9809    1.5223 H   0  0  0  0  0  0  0  0  0  0  0  0
   -0.6881   -2.5979    0.5841 C   0  0  0  0  0  0  0  0  0  0  0  0
   -1.7526   -2.7750    0.7680 H   0  0  0  0  0  0  0  0  0  0  0  0
   -0.2038   -3.5835    0.6196 H   0  0  0  0  0  0  0  0  0  0  0  0
   -0.1121   -1.7268    1.7161 C   0  0  0  0  0  0  0  0  0  0  0  0
    0.9550   -1.5456    1.5282 H   0  0  0  0  0  0  0  0  0  0  0  0
   -0.5975   -0.7439    1.6914 H   0  0  0  0  0  0  0  0  0  0  0  0
   -0.2875   -2.3513    3.1048 C   0  0  0  0  0  0  0  0  0  0  0  0
   -1.3546   -2.5395    3.2836 H   0  0  0  0  0  0  0  0  0  0  0  0
    0.2032   -3.3334    3.1265 H   0  0  0  0  0  0  0  0  0  0  0  0
    0.2721   -1.4724    4.2291 C   0  0  0  0  0  0  0  0  0  0  0  0
    0.1317   -1.9384    5.2106 H   0  0  0  0  0  0  0  0  0  0  0  0
   -0.2240   -0.4950    4.2493 H   0  0  0  0  0  0  0  0  0  0  0  0
    1.3454   -1.2949    4.0943 H   0  0  0  0  0  0  0  0  0  0  0  0
  1  2  1  0  0  0  0
  2  3  2  0  0  0  0
  2 21  1  0  0  0  0
  3  4  1  0  0  0  0
  3  5  1  0  0  0  0
  5  6  1  0  0  0  0
  5  7  1  0  0  0  0
  5  8  1  0  0  0  0
  8  9  1  0  0  0  0
  8 10  1  0  0  0  0
  8 11  1  0  0  0  0
 11 12  1  0  0  0  0
 11 13  1  0  0  0  0
 11 14  1  0  0  0  0
 14 15  1  0  0  0  0
 14 16  1  0  0  0  0
 14 17  1  0  0  0  0
 17 18  1  0  0  0  0
 17 19  1  0  0  0  0
 17 20  1  0  0  0  0
 21 22  1  0  0  0  0
 21 23  1  0  0  0  0
 21 24  1  0  0  0  0
 24 25  1  0  0  0  0
 24 26  1  0  0  0  0
 24 27  1  0  0  0  0
 27 28  1  0  0  0  0
 27 29  1  0  0  0  0
 27 30  1  0  0  0  0
 30 31  1  0  0  0  0
 30 32  1  0  0  0  0
 30 33  1  0  0  0  0
M  END
> <grid_ids>
[(-165,), (-150,), (-135,), (-120,), (-105,), (-90,), (-75,), (-60,), (-45,), (-30,), (-15,), (0,), (15,), (30,), (45,), (60,), (75,), (90,), (105,), (120,), (135,), (150,), (165,), (180,)]

$$$$
