
  -OEChem-08192616593D

 29 28  0     1  0  0  0  0  0999 V2000
    3.4498    2.3541    1.0434 C   0  0  0  0  0  0  0  0  0  0  0  0
    2.5680    1.2411    1.6207 C   0  0  0  0  0  0  0  0  0  0  0  0
    1.4687    0.7835    0.6540 C   0  0  0  0  0  0  0  0  0  0  0  0
    0.5745   -0.3137    1.2433 C   0  0  0  0  0  0  0  0  0  0  0  0
   -0.4382   -0.9451    0.2671 C   0  0  1  0  0  0  0  0  0  0  0  0
    0.1457   -1.4123   -0.5403 H   0  0  0  0  0  0  0  0  0  0  0  0
   -1.2088   -2.0687    0.9797 C   0  0  0  0  0  0  0  0  0  0  0  0
   -1.3617    0.0941   -0.4210 C   0  0  0  0  0  0  0  0  0  0  0  0
   -2.2090    0.9143    0.5641 C   0  0  0  0  0  0  0  0  0  0  0  0
   -2.2569   -0.5500   -1.4916 C   0  0  0  0  0  0  0  0  0  0  0  0
    4.2272    2.6592    1.7524 H   0  0  0  0  0  0  0  0  0  0  0  0
    2.8552    3.2419    0.7980 H   0  0  0  0  0  0  0  0  0  0  0  0
    3.9477    2.0260    0.1234 H   0  0  0  0  0  0  0  0  0  0  0  0
    2.1056    1.5871    2.5547 H   0  0  0  0  0  0  0  0  0  0  0  0
    3.1937    0.3804    1.8914 H   0  0  0  0  0  0  0  0  0  0  0  0
    1.9311    0.4192   -0.2744 H   0  0  0  0  0  0  0  0  0  0  0  0
    0.8642    1.6543    0.3714 H   0  0  0  0  0  0  0  0  0  0  0  0
    1.2170   -1.1182    1.6263 H   0  0  0  0  0  0  0  0  0  0  0  0
    0.0448    0.0819    2.1201 H   0  0  0  0  0  0  0  0  0  0  0  0
   -1.8756   -2.6075    0.3002 H   0  0  0  0  0  0  0  0  0  0  0  0
   -1.8140   -1.6802    1.8064 H   0  0  0  0  0  0  0  0  0  0  0  0
   -0.5116   -2.8001    1.4033 H   0  0  0  0  0  0  0  0  0  0  0  0
   -0.7025    0.7962   -0.9464 H   0  0  0  0  0  0  0  0  0  0  0  0
   -2.8059    1.6595    0.0265 H   0  0  0  0  0  0  0  0  0  0  0  0
   -2.9063    0.2792    1.1216 H   0  0  0  0  0  0  0  0  0  0  0  0
   -1.5910    1.4508    1.2910 H   0  0  0  0  0  0  0  0  0  0  0  0
   -2.7642    0.2189   -2.0849 H   0  0  0  0  0  0  0  0  0  0  0  0
   -3.0329   -1.1821   -1.0468 H   0  0  0  0  0  0  0  0  0  0  0  0
   -1.6719   -1.1715   -2.1798 H   0  0  0  0  0  0  0  0  0  0  0  0
  1  2  1  0  0  0  0
  1 11  1  0  0  0  0
  1 12  1  0  0  0  0
  1 13  1  0  0  0  0
  2  3  1  0  0  0  0
  2 14  1  0  0  0  0
  2 15  1  0  0  0  0
  3  4  1  0  0  0  0
  3 16  1  0  0  0  0
  3 17  1  0  0  0  0
  4  5  1  0  0  0  0
  4 18  1  0  0  0  0
  4 19  1  0  0  0  0
  5  6  1  0  0  0  0
  5  7  1  0  0  0  0
  5  8  1  0  0  0  0
  7 20  1  0  0  0  0
  7 21  1  0  0  0  0
  7 22  1  0  0  0  0
  8  9  1  0  0  0  0
  8 10  1  0  0  0  0
  8 23  1  0  0  0  0
  9 24  1  0  0  0  0
  9 25  1  0  0  0  0
  9 26  1  0  0  0  0
 10 27  1  0  0  0  0
 10 28  1  0  0  0  0
 10 29  1  0  0  0  0
M  END
$$$$
