
  -OEChem-08192616593D

 56 55  0     1  0  0  0  0  0999 V2000
    4.4651    0.5521   -3.0824 C   0  0  0  0  0  0  0  0  0  0  0  0
    3.1768    1.3807   -3.0346 C   0  0  0  0  0  0  0  0  0  0  0  0
    3.2135    2.4598   -1.9456 C   0  0  0  0  0  0  0  0  0  0  0  0
    1.9952    3.4022   -1.9081 C   0  0  2  0  0  0  0  0  0  0  0  0
    2.1671    4.4515   -0.7986 C   0  0  0  0  0  0  0  0  0  0  0  0
    0.6460    2.6618   -1.7930 C   0  0  0  0  0  0  0  0  0  0  0  0
    0.5110    1.7146   -0.5943 C   0  0  0  0  0  0  0  0  0  0  0  0
   -0.8342    0.9810   -0.5765 C   0  0  0  0  0  0  0  0  0  0  0  0
   -1.0141   -0.0191    0.5816 C   0  0  0  0  0  0  0  0  0  0  0  0
   -2.3949   -0.6880    0.4986 C   0  0  0  0  0  0  0  0  0  0  0  0
    0.1229   -1.0602    0.6732 C   0  0  0  0  0  0  0  0  0  0  0  0
    0.3910   -1.8652   -0.6053 C   0  0  0  0  0  0  0  0  0  0  0  0
    1.5563   -2.8492   -0.4452 C   0  0  0  0  0  0  0  0  0  0  0  0
    1.8717   -3.6904   -1.6975 C   0  0  2  0  0  0  0  0  0  0  0  0
    2.7892   -4.8660   -1.3271 C   0  0  0  0  0  0  0  0  0  0  0  0
    2.4802   -2.8327   -2.8236 C   0  0  0  0  0  0  0  0  0  0  0  0
    2.5511   -3.5223   -4.1924 C   0  0  0  0  0  0  0  0  0  0  0  0
    3.1197   -2.6120   -5.2870 C   0  0  0  0  0  0  0  0  0  0  0  0
    4.4223   -0.2084   -3.8678 H   0  0  0  0  0  0  0  0  0  0  0  0
    4.6351    0.0366   -2.1299 H   0  0  0  0  0  0  0  0  0  0  0  0
    5.3372    1.1878   -3.2752 H   0  0  0  0  0  0  0  0  0  0  0  0
    3.0067    1.8544   -4.0108 H   0  0  0  0  0  0  0  0  0  0  0  0
    2.3266    0.7083   -2.8693 H   0  0  0  0  0  0  0  0  0  0  0  0
    4.1148    3.0715   -2.0884 H   0  0  0  0  0  0  0  0  0  0  0  0
    3.3364    1.9785   -0.9660 H   0  0  0  0  0  0  0  0  0  0  0  0
    1.9727    3.9411   -2.8666 H   0  0  0  0  0  0  0  0  0  0  0  0
    1.3231    5.1504   -0.7786 H   0  0  0  0  0  0  0  0  0  0  0  0
    3.0822    5.0356   -0.9485 H   0  0  0  0  0  0  0  0  0  0  0  0
    2.2361    3.9835    0.1897 H   0  0  0  0  0  0  0  0  0  0  0  0
   -0.1587    3.4086   -1.7557 H   0  0  0  0  0  0  0  0  0  0  0  0
    0.4742    2.0862   -2.7112 H   0  0  0  0  0  0  0  0  0  0  0  0
    0.6339    2.2681    0.3455 H   0  0  0  0  0  0  0  0  0  0  0  0
    1.3237    0.9820   -0.6238 H   0  0  0  0  0  0  0  0  0  0  0  0
   -0.9706    0.4571   -1.5320 H   0  0  0  0  0  0  0  0  0  0  0  0
   -1.6451    1.7203   -0.5268 H   0  0  0  0  0  0  0  0  0  0  0  0
   -0.9852    0.5559    1.5185 H   0  0  0  0  0  0  0  0  0  0  0  0
   -2.5549   -1.3756    1.3370 H   0  0  0  0  0  0  0  0  0  0  0  0
   -2.5086   -1.2605   -0.4287 H   0  0  0  0  0  0  0  0  0  0  0  0
   -3.1957    0.0598    0.5213 H   0  0  0  0  0  0  0  0  0  0  0  0
    1.0505   -0.5546    0.9684 H   0  0  0  0  0  0  0  0  0  0  0  0
   -0.1083   -1.7552    1.4918 H   0  0  0  0  0  0  0  0  0  0  0  0
   -0.5088   -2.4228   -0.8952 H   0  0  0  0  0  0  0  0  0  0  0  0
    0.6019   -1.1770   -1.4302 H   0  0  0  0  0  0  0  0  0  0  0  0
    1.3276   -3.5274    0.3879 H   0  0  0  0  0  0  0  0  0  0  0  0
    2.4608   -2.2992   -0.1470 H   0  0  0  0  0  0  0  0  0  0  0  0
    0.9216   -4.1059   -2.0660 H   0  0  0  0  0  0  0  0  0  0  0  0
    2.9967   -5.5135   -2.1845 H   0  0  0  0  0  0  0  0  0  0  0  0
    2.3361   -5.4873   -0.5466 H   0  0  0  0  0  0  0  0  0  0  0  0
    3.7506   -4.5005   -0.9448 H   0  0  0  0  0  0  0  0  0  0  0  0
    3.4878   -2.5138   -2.5208 H   0  0  0  0  0  0  0  0  0  0  0  0
    1.8966   -1.9116   -2.9395 H   0  0  0  0  0  0  0  0  0  0  0  0
    3.1631   -4.4294   -4.1287 H   0  0  0  0  0  0  0  0  0  0  0  0
    1.5432   -3.8517   -4.4781 H   0  0  0  0  0  0  0  0  0  0  0  0
    3.1274   -3.1135   -6.2610 H   0  0  0  0  0  0  0  0  0  0  0  0
    4.1496   -2.3159   -5.0576 H   0  0  0  0  0  0  0  0  0  0  0  0
    2.5272   -1.6949   -5.3872 H   0  0  0  0  0  0  0  0  0  0  0  0
  1  2  1  0  0  0  0
  1 19  1  0  0  0  0
  1 20  1  0  0  0  0
  1 21  1  0  0  0  0
  2  3  1  0  0  0  0
  2 22  1  0  0  0  0
  2 23  1  0  0  0  0
  3  4  1  0  0  0  0
  3 24  1  0  0  0  0
  3 25  1  0  0  0  0
  4  5  1  0  0  0  0
  4  6  1  0  0  0  0
  4 26  1  0  0  0  0
  5 27  1  0  0  0  0
  5 28  1  0  0  0  0
  5 29  1  0  0  0  0
  6  7  1  0  0  0  0
  6 30  1  0  0  0  0
  6 31  1  0  0  0  0
  7  8  1  0  0  0  0
  7 32  1  0  0  0  0
  7 33  1  0  0  0  0
  8  9  1  0  0  0  0
  8 34  1  0  0  0  0
  8 35  1  0  0  0  0
  9 10  1  0  0  0  0
  9 11  1  0  0  0  0
  9 36  1  0  0  0  0
 10 37  1  0  0  0  0
 10 38  1  0  0  0  0
 10 39  1  0  0  0  0
 11 12  1  0  0  0  0
 11 40  1  0  0  0  0
 11 41  1  0  0  0  0
 12 13  1  0  0  0  0
 12 42  1  0  0  0  0
 12 43  1  0  0  0  0
 13 14  1  0  0  0  0
 13 44  1  0  0  0  0
 13 45  1  0  0  0  0
 14 15  1  0  0  0  0
 14 16  1  0  0  0  0
 14 46  1  0  0  0  0
 15 47  1  0  0  0  0
 15 48  1  0  0  0  0
 15 49  1  0  0  0  0
 16 17  1  0  0  0  0
 16 50  1  0  0  0  0
 16 51  1  0  0  0  0
 17 18  1  0  0  0  0
 17 52  1  0  0  0  0
 17 53  1  0  0  0  0
 18 54  1  0  0  0  0
 18 55  1  0  0  0  0
 18 56  1  0  0  0  0
M  END
$$$$
