
  -OEChem-08192616593D

 29 28  0     0  0  0  0  0  0999 V2000
    0.1838   -1.0649   -0.0480 C   0  0  0  0  0  0  0  0  0  0  0  0
   -0.4108   -1.5654    1.2733 C   0  0  0  0  0  0  0  0  0  0  0  0
   -0.2103   -3.0698    1.4909 C   0  0  0  0  0  0  0  0  0  0  0  0
   -0.7991   -3.5802    2.8109 C   0  0  0  0  0  0  0  0  0  0  0  0
   -0.5838   -5.0835    3.0245 C   0  0  0  0  0  0  0  0  0  0  0  0
   -1.2537   -5.6500    4.2860 C   0  0  0  0  0  0  0  0  0  0  0  0
   -0.8152   -5.0290    5.6261 C   0  0  0  0  0  0  0  0  0  0  0  0
    0.6991   -5.1432    5.8523 C   0  0  0  0  0  0  0  0  0  0  0  0
   -1.5857   -5.6765    6.7859 C   0  0  0  0  0  0  0  0  0  0  0  0
    0.0261    0.0114   -0.1774 H   0  0  0  0  0  0  0  0  0  0  0  0
    1.2633   -1.2515   -0.0906 H   0  0  0  0  0  0  0  0  0  0  0  0
   -0.2729   -1.5744   -0.9046 H   0  0  0  0  0  0  0  0  0  0  0  0
    0.0409   -1.0159    2.1099 H   0  0  0  0  0  0  0  0  0  0  0  0
   -1.4843   -1.3361    1.3026 H   0  0  0  0  0  0  0  0  0  0  0  0
    0.8641   -3.2996    1.4604 H   0  0  0  0  0  0  0  0  0  0  0  0
   -0.6617   -3.6203    0.6537 H   0  0  0  0  0  0  0  0  0  0  0  0
   -0.3528   -3.0171    3.6403 H   0  0  0  0  0  0  0  0  0  0  0  0
   -1.8758   -3.3605    2.8390 H   0  0  0  0  0  0  0  0  0  0  0  0
    0.4925   -5.2961    3.0436 H   0  0  0  0  0  0  0  0  0  0  0  0
   -0.9781   -5.6242    2.1538 H   0  0  0  0  0  0  0  0  0  0  0  0
   -2.3420   -5.5334    4.1897 H   0  0  0  0  0  0  0  0  0  0  0  0
   -1.0669   -6.7325    4.3286 H   0  0  0  0  0  0  0  0  0  0  0  0
   -1.0752   -3.9623    5.6121 H   0  0  0  0  0  0  0  0  0  0  0  0
    0.9812   -4.7340    6.8289 H   0  0  0  0  0  0  0  0  0  0  0  0
    1.0188   -6.1927    5.8263 H   0  0  0  0  0  0  0  0  0  0  0  0
    1.2701   -4.6024    5.0910 H   0  0  0  0  0  0  0  0  0  0  0  0
   -1.3267   -5.2129    7.7445 H   0  0  0  0  0  0  0  0  0  0  0  0
   -2.6687   -5.5802    6.6477 H   0  0  0  0  0  0  0  0  0  0  0  0
   -1.3535   -6.7463    6.8599 H   0  0  0  0  0  0  0  0  0  0  0  0
  1  2  1  0  0  0  0
  1 10  1  0  0  0  0
  1 11  1  0  0  0  0
  1 12  1  0  0  0  0
  2  3  1  0  0  0  0
  2 13  1  0  0  0  0
  2 14  1  0  0  0  0
  3  4  1  0  0  0  0
  3 15  1  0  0  0  0
  3 16  1  0  0  0  0
  4  5  1  0  0  0  0
  4 17  1  0  0  0  0
  4 18  1  0  0  0  0
  5  6  1  0  0  0  0
  5 19  1  0  0  0  0
  5 20  1  0  0  0  0
  6  7  1  0  0  0  0
  6 21  1  0  0  0  0
  6 22  1  0  0  0  0
  7  8  1  0  0  0  0
  7  9  1  0  0  0  0
  7 23  1  0  0  0  0
  8 24  1  0  0  0  0
  8 25  1  0  0  0  0
  8 26  1  0  0  0  0
  9 27  1  0  0  0  0
  9 28  1  0  0  0  0
  9 29  1  0  0  0  0
M  END
$$$$
