
  -OEChem-08192616593D

 50 49  0     1  0  0  0  0  0999 V2000
   -5.1400   -4.2575   -2.1930 C   0  0  0  0  0  0  0  0  0  0  0  0
   -3.9858   -3.4603   -1.5719 C   0  0  0  0  0  0  0  0  0  0  0  0
   -2.5973   -4.1074   -1.7330 C   0  0  2  0  0  0  0  0  0  0  0  0
   -2.5361   -5.4983   -1.0829 C   0  0  0  0  0  0  0  0  0  0  0  0
   -1.4762   -3.2147   -1.1670 C   0  0  0  0  0  0  0  0  0  0  0  0
   -1.2977   -1.8576   -1.8596 C   0  0  0  0  0  0  0  0  0  0  0  0
   -0.0619   -1.0949   -1.3674 C   0  0  0  0  0  0  0  0  0  0  0  0
    0.1186    0.2713   -2.0385 C   0  0  0  0  0  0  0  0  0  0  0  0
    1.3640    1.0263   -1.5601 C   0  0  0  0  0  0  0  0  0  0  0  0
    1.5439    2.3931   -2.2303 C   0  0  0  0  0  0  0  0  0  0  0  0
    2.7948    3.1437   -1.7595 C   0  0  0  0  0  0  0  0  0  0  0  0
    2.9606    4.5146   -2.4267 C   0  0  0  0  0  0  0  0  0  0  0  0
    4.2634    5.2454   -2.0663 C   0  0  0  0  0  0  0  0  0  0  0  0
    4.4850    5.5437   -0.5712 C   0  0  0  0  0  0  0  0  0  0  0  0
    3.3444    6.3765    0.0312 C   0  0  0  0  0  0  0  0  0  0  0  0
    5.8345    6.2475   -0.3672 C   0  0  0  0  0  0  0  0  0  0  0  0
   -6.0784   -3.6953   -2.1338 H   0  0  0  0  0  0  0  0  0  0  0  0
   -4.9466   -4.4691   -3.2515 H   0  0  0  0  0  0  0  0  0  0  0  0
   -5.2999   -5.2143   -1.6867 H   0  0  0  0  0  0  0  0  0  0  0  0
   -3.9706   -2.4638   -2.0267 H   0  0  0  0  0  0  0  0  0  0  0  0
   -4.1812   -3.3051   -0.5012 H   0  0  0  0  0  0  0  0  0  0  0  0
   -2.4108   -4.2309   -2.8109 H   0  0  0  0  0  0  0  0  0  0  0  0
   -1.5363   -5.9345   -1.1856 H   0  0  0  0  0  0  0  0  0  0  0  0
   -3.2471   -6.1962   -1.5348 H   0  0  0  0  0  0  0  0  0  0  0  0
   -2.7632   -5.4370   -0.0109 H   0  0  0  0  0  0  0  0  0  0  0  0
   -0.5288   -3.7662   -1.2366 H   0  0  0  0  0  0  0  0  0  0  0  0
   -1.6532   -3.0551   -0.0934 H   0  0  0  0  0  0  0  0  0  0  0  0
   -1.2187   -2.0122   -2.9450 H   0  0  0  0  0  0  0  0  0  0  0  0
   -2.1845   -1.2316   -1.7039 H   0  0  0  0  0  0  0  0  0  0  0  0
    0.8347   -1.7058   -1.5414 H   0  0  0  0  0  0  0  0  0  0  0  0
   -0.1293   -0.9585   -0.2790 H   0  0  0  0  0  0  0  0  0  0  0  0
    0.1732    0.1358   -3.1277 H   0  0  0  0  0  0  0  0  0  0  0  0
   -0.7725    0.8872   -1.8538 H   0  0  0  0  0  0  0  0  0  0  0  0
    1.3111    1.1603   -0.4708 H   0  0  0  0  0  0  0  0  0  0  0  0
    2.2549    0.4109   -1.7472 H   0  0  0  0  0  0  0  0  0  0  0  0
    0.6563    3.0116   -2.0372 H   0  0  0  0  0  0  0  0  0  0  0  0
    1.5893    2.2599   -3.3201 H   0  0  0  0  0  0  0  0  0  0  0  0
    3.6848    2.5315   -1.9627 H   0  0  0  0  0  0  0  0  0  0  0  0
    2.7500    3.2612   -0.6693 H   0  0  0  0  0  0  0  0  0  0  0  0
    2.0965    5.1443   -2.1802 H   0  0  0  0  0  0  0  0  0  0  0  0
    2.9311    4.3829   -3.5165 H   0  0  0  0  0  0  0  0  0  0  0  0
    5.1128    4.6512   -2.4306 H   0  0  0  0  0  0  0  0  0  0  0  0
    4.2988    6.1957   -2.6178 H   0  0  0  0  0  0  0  0  0  0  0  0
    4.5265    4.5878   -0.0323 H   0  0  0  0  0  0  0  0  0  0  0  0
    3.5443    6.6121    1.0826 H   0  0  0  0  0  0  0  0  0  0  0  0
    2.3850    5.8514   -0.0123 H   0  0  0  0  0  0  0  0  0  0  0  0
    3.2297    7.3261   -0.5068 H   0  0  0  0  0  0  0  0  0  0  0  0
    6.0362    6.4224    0.6957 H   0  0  0  0  0  0  0  0  0  0  0  0
    5.8474    7.2210   -0.8731 H   0  0  0  0  0  0  0  0  0  0  0  0
    6.6602    5.6513   -0.7723 H   0  0  0  0  0  0  0  0  0  0  0  0
  1  2  1  0  0  0  0
  1 17  1  0  0  0  0
  1 18  1  0  0  0  0
  1 19  1  0  0  0  0
  2  3  1  0  0  0  0
  2 20  1  0  0  0  0
  2 21  1  0  0  0  0
  3  4  1  0  0  0  0
  3  5  1  0  0  0  0
  3 22  1  0  0  0  0
  4 23  1  0  0  0  0
  4 24  1  0  0  0  0
  4 25  1  0  0  0  0
  5  6  1  0  0  0  0
  5 26  1  0  0  0  0
  5 27  1  0  0  0  0
  6  7  1  0  0  0  0
  6 28  1  0  0  0  0
  6 29  1  0  0  0  0
  7  8  1  0  0  0  0
  7 30  1  0  0  0  0
  7 31  1  0  0  0  0
  8  9  1  0  0  0  0
  8 32  1  0  0  0  0
  8 33  1  0  0  0  0
  9 10  1  0  0  0  0
  9 34  1  0  0  0  0
  9 35  1  0  0  0  0
 10 11  1  0  0  0  0
 10 36  1  0  0  0  0
 10 37  1  0  0  0  0
 11 12  1  0  0  0  0
 11 38  1  0  0  0  0
 11 39  1  0  0  0  0
 12 13  1  0  0  0  0
 12 40  1  0  0  0  0
 12 41  1  0  0  0  0
 13 14  1  0  0  0  0
 13 42  1  0  0  0  0
 13 43  1  0  0  0  0
 14 15  1  0  0  0  0
 14 16  1  0  0  0  0
 14 44  1  0  0  0  0
 15 45  1  0  0  0  0
 15 46  1  0  0  0  0
 15 47  1  0  0  0  0
 16 48  1  0  0  0  0
 16 49  1  0  0  0  0
 16 50  1  0  0  0  0
M  END
$$$$
