
  -OEChem-08192616593D

 29 28  0     0  0  0  0  0  0999 V2000
    0.1795   -0.9711    0.0727 C   0  0  0  0  0  0  0  0  0  0  0  0
   -0.4795   -1.5538    1.3281 C   0  0  0  0  0  0  0  0  0  0  0  0
   -0.1962   -3.0489    1.5170 C   0  0  0  0  0  0  0  0  0  0  0  0
   -0.8508   -3.6415    2.7698 C   0  0  0  0  0  0  0  0  0  0  0  0
   -0.5659   -5.1366    2.9573 C   0  0  0  0  0  0  0  0  0  0  0  0
   -1.2295   -5.7107    4.2164 C   0  0  0  0  0  0  0  0  0  0  0  0
   -0.9994   -7.2132    4.4813 C   0  0  0  0  0  0  0  0  0  0  0  0
    0.4812   -7.5464    4.7213 C   0  0  0  0  0  0  0  0  0  0  0  0
   -1.5894   -8.1014    3.3752 C   0  0  0  0  0  0  0  0  0  0  0  0
   -0.0396    0.0967   -0.0372 H   0  0  0  0  0  0  0  0  0  0  0  0
    1.2691   -1.0860    0.1094 H   0  0  0  0  0  0  0  0  0  0  0  0
   -0.1755   -1.4793   -0.8315 H   0  0  0  0  0  0  0  0  0  0  0  0
   -0.1309   -1.0054    2.2133 H   0  0  0  0  0  0  0  0  0  0  0  0
   -1.5650   -1.3951    1.2795 H   0  0  0  0  0  0  0  0  0  0  0  0
    0.8902   -3.2079    1.5647 H   0  0  0  0  0  0  0  0  0  0  0  0
   -0.5444   -3.5977    0.6307 H   0  0  0  0  0  0  0  0  0  0  0  0
   -0.5029   -3.0917    3.6554 H   0  0  0  0  0  0  0  0  0  0  0  0
   -1.9370   -3.4823    2.7213 H   0  0  0  0  0  0  0  0  0  0  0  0
    0.5197   -5.2885    3.0037 H   0  0  0  0  0  0  0  0  0  0  0  0
   -0.9144   -5.6788    2.0694 H   0  0  0  0  0  0  0  0  0  0  0  0
   -0.8749   -5.1453    5.0892 H   0  0  0  0  0  0  0  0  0  0  0  0
   -2.3116   -5.5293    4.1573 H   0  0  0  0  0  0  0  0  0  0  0  0
   -1.5402   -7.4467    5.4091 H   0  0  0  0  0  0  0  0  0  0  0  0
    0.6014   -8.5902    5.0326 H   0  0  0  0  0  0  0  0  0  0  0  0
    1.0771   -7.4058    3.8128 H   0  0  0  0  0  0  0  0  0  0  0  0
    0.9107   -6.9114    5.5048 H   0  0  0  0  0  0  0  0  0  0  0  0
   -1.5231   -9.1607    3.6479 H   0  0  0  0  0  0  0  0  0  0  0  0
   -2.6451   -7.8668    3.1962 H   0  0  0  0  0  0  0  0  0  0  0  0
   -1.0533   -7.9738    2.4283 H   0  0  0  0  0  0  0  0  0  0  0  0
  1  2  1  0  0  0  0
  1 10  1  0  0  0  0
  1 11  1  0  0  0  0
  1 12  1  0  0  0  0
  2  3  1  0  0  0  0
  2 13  1  0  0  0  0
  2 14  1  0  0  0  0
  3  4  1  0  0  0  0
  3 15  1  0  0  0  0
  3 16  1  0  0  0  0
  4  5  1  0  0  0  0
  4 17  1  0  0  0  0
  4 18  1  0  0  0  0
  5  6  1  0  0  0  0
  5 19  1  0  0  0  0
  5 20  1  0  0  0  0
  6  7  1  0  0  0  0
  6 21  1  0  0  0  0
  6 22  1  0  0  0  0
  7  8  1  0  0  0  0
  7  9  1  0  0  0  0
  7 23  1  0  0  0  0
  8 24  1  0  0  0  0
  8 25  1  0  0  0  0
  8 26  1  0  0  0  0
  9 27  1  0  0  0  0
  9 28  1  0  0  0  0
  9 29  1  0  0  0  0
M  END
$$$$
