
  -OEChem-08192616593D

 35 34  0     0  0  0  0  0  0999 V2000
   -5.3948   -2.3472    1.2264 C   0  0  0  0  0  0  0  0  0  0  0  0
   -4.1411   -1.6292    0.7136 C   0  0  0  0  0  0  0  0  0  0  0  0
   -3.0970   -1.3999    1.8145 C   0  0  0  0  0  0  0  0  0  0  0  0
   -1.8608   -0.6047    1.3687 C   0  0  0  0  0  0  0  0  0  0  0  0
   -0.9977   -1.3074    0.3129 C   0  0  0  0  0  0  0  0  0  0  0  0
    0.2793   -0.5310   -0.0322 C   0  0  0  0  0  0  0  0  0  0  0  0
    1.1276   -1.2410   -1.0946 C   0  0  0  0  0  0  0  0  0  0  0  0
    2.4474   -0.5510   -1.5180 C   0  0  0  0  0  0  0  0  0  0  0  0
    3.3988   -0.4039   -0.3159 C   0  0  0  0  0  0  0  0  0  0  0  0
    3.1251   -1.4340   -2.5831 C   0  0  0  0  0  0  0  0  0  0  0  0
    2.1697    0.8364   -2.1262 C   0  0  0  0  0  0  0  0  0  0  0  0
   -6.1256   -2.5013    0.4249 H   0  0  0  0  0  0  0  0  0  0  0  0
   -5.1436   -3.3302    1.6419 H   0  0  0  0  0  0  0  0  0  0  0  0
   -5.8848   -1.7696    2.0190 H   0  0  0  0  0  0  0  0  0  0  0  0
   -4.4242   -0.6605    0.2797 H   0  0  0  0  0  0  0  0  0  0  0  0
   -3.7004   -2.2132   -0.1030 H   0  0  0  0  0  0  0  0  0  0  0  0
   -3.5772   -0.8699    2.6483 H   0  0  0  0  0  0  0  0  0  0  0  0
   -2.7776   -2.3718    2.2166 H   0  0  0  0  0  0  0  0  0  0  0  0
   -1.2390   -0.3960    2.2495 H   0  0  0  0  0  0  0  0  0  0  0  0
   -2.1793    0.3739    0.9829 H   0  0  0  0  0  0  0  0  0  0  0  0
   -0.7274   -2.3091    0.6763 H   0  0  0  0  0  0  0  0  0  0  0  0
   -1.5795   -1.4627   -0.6041 H   0  0  0  0  0  0  0  0  0  0  0  0
    0.0008    0.4712   -0.3806 H   0  0  0  0  0  0  0  0  0  0  0  0
    0.8651   -0.3872    0.8839 H   0  0  0  0  0  0  0  0  0  0  0  0
    0.5125   -1.3850   -1.9940 H   0  0  0  0  0  0  0  0  0  0  0  0
    1.3698   -2.2497   -0.7314 H   0  0  0  0  0  0  0  0  0  0  0  0
    4.3648    0.0049   -0.6343 H   0  0  0  0  0  0  0  0  0  0  0  0
    3.5871   -1.3741    0.1591 H   0  0  0  0  0  0  0  0  0  0  0  0
    2.9923    0.2696    0.4452 H   0  0  0  0  0  0  0  0  0  0  0  0
    4.0692   -0.9909   -2.9208 H   0  0  0  0  0  0  0  0  0  0  0  0
    3.3467   -2.4318   -2.1864 H   0  0  0  0  0  0  0  0  0  0  0  0
    2.4808   -1.5587   -3.4612 H   0  0  0  0  0  0  0  0  0  0  0  0
    3.0956    1.2866   -2.5025 H   0  0  0  0  0  0  0  0  0  0  0  0
    1.7450    1.5261   -1.3899 H   0  0  0  0  0  0  0  0  0  0  0  0
    1.4676    0.7658   -2.9655 H   0  0  0  0  0  0  0  0  0  0  0  0
  1  2  1  0  0  0  0
  1 12  1  0  0  0  0
  1 13  1  0  0  0  0
  1 14  1  0  0  0  0
  2  3  1  0  0  0  0
  2 15  1  0  0  0  0
  2 16  1  0  0  0  0
  3  4  1  0  0  0  0
  3 17  1  0  0  0  0
  3 18  1  0  0  0  0
  4  5  1  0  0  0  0
  4 19  1  0  0  0  0
  4 20  1  0  0  0  0
  5  6  1  0  0  0  0
  5 21  1  0  0  0  0
  5 22  1  0  0  0  0
  6  7  1  0  0  0  0
  6 23  1  0  0  0  0
  6 24  1  0  0  0  0
  7  8  1  0  0  0  0
  7 25  1  0  0  0  0
  7 26  1  0  0  0  0
  8  9  1  0  0  0  0
  8 10  1  0  0  0  0
  8 11  1  0  0  0  0
  9 27  1  0  0  0  0
  9 28  1  0  0  0  0
  9 29  1  0  0  0  0
 10 30  1  0  0  0  0
 10 31  1  0  0  0  0
 10 32  1  0  0  0  0
 11 33  1  0  0  0  0
 11 34  1  0  0  0  0
 11 35  1  0  0  0  0
M  END
$$$$
