
  -OEChem-08192616593D

 35 34  0     0  0  0  0  0  0999 V2000
   -3.7836    2.8106    1.8932 C   0  0  0  0  0  0  0  0  0  0  0  0
   -3.2376    1.4218    2.2434 C   0  0  0  0  0  0  0  0  0  0  0  0
   -2.3523    0.8285    1.1409 C   0  0  0  0  0  0  0  0  0  0  0  0
   -1.7977   -0.5579    1.4927 C   0  0  0  0  0  0  0  0  0  0  0  0
   -0.9914   -1.2270    0.3695 C   0  0  0  0  0  0  0  0  0  0  0  0
    0.3006   -0.4908   -0.0110 C   0  0  0  0  0  0  0  0  0  0  0  0
    1.1130   -1.2547   -1.0641 C   0  0  0  0  0  0  0  0  0  0  0  0
    2.4308   -0.6004   -1.5464 C   0  0  0  0  0  0  0  0  0  0  0  0
    3.4087   -0.4089   -0.3722 C   0  0  0  0  0  0  0  0  0  0  0  0
    3.0763   -1.5393   -2.5834 C   0  0  0  0  0  0  0  0  0  0  0  0
    2.1555    0.7606   -2.2127 C   0  0  0  0  0  0  0  0  0  0  0  0
   -4.4136    3.2088    2.6962 H   0  0  0  0  0  0  0  0  0  0  0  0
   -2.9686    3.5241    1.7238 H   0  0  0  0  0  0  0  0  0  0  0  0
   -4.3885    2.7779    0.9795 H   0  0  0  0  0  0  0  0  0  0  0  0
   -4.0737    0.7384    2.4429 H   0  0  0  0  0  0  0  0  0  0  0  0
   -2.6618    1.4790    3.1768 H   0  0  0  0  0  0  0  0  0  0  0  0
   -2.9311    0.7605    0.2086 H   0  0  0  0  0  0  0  0  0  0  0  0
   -1.5269    1.5222    0.9369 H   0  0  0  0  0  0  0  0  0  0  0  0
   -2.6358   -1.2137    1.7641 H   0  0  0  0  0  0  0  0  0  0  0  0
   -1.1703   -0.4790    2.3917 H   0  0  0  0  0  0  0  0  0  0  0  0
   -0.7373   -2.2499    0.6782 H   0  0  0  0  0  0  0  0  0  0  0  0
   -1.6265   -1.3276   -0.5218 H   0  0  0  0  0  0  0  0  0  0  0  0
    0.0548    0.5083   -0.3860 H   0  0  0  0  0  0  0  0  0  0  0  0
    0.9020   -0.3432    0.8950 H   0  0  0  0  0  0  0  0  0  0  0  0
    0.4741   -1.4248   -1.9422 H   0  0  0  0  0  0  0  0  0  0  0  0
    1.3504   -2.2518   -0.6674 H   0  0  0  0  0  0  0  0  0  0  0  0
    4.3722   -0.0267   -0.7288 H   0  0  0  0  0  0  0  0  0  0  0  0
    3.5963   -1.3581    0.1438 H   0  0  0  0  0  0  0  0  0  0  0  0
    3.0251    0.3039    0.3646 H   0  0  0  0  0  0  0  0  0  0  0  0
    4.0173   -1.1228   -2.9612 H   0  0  0  0  0  0  0  0  0  0  0  0
    3.2961   -2.5201   -2.1457 H   0  0  0  0  0  0  0  0  0  0  0  0
    2.4118   -1.6972   -3.4410 H   0  0  0  0  0  0  0  0  0  0  0  0
    3.0779    1.1813   -2.6295 H   0  0  0  0  0  0  0  0  0  0  0  0
    1.7551    1.4893   -1.5007 H   0  0  0  0  0  0  0  0  0  0  0  0
    1.4342    0.6599   -3.0324 H   0  0  0  0  0  0  0  0  0  0  0  0
  1  2  1  0  0  0  0
  1 12  1  0  0  0  0
  1 13  1  0  0  0  0
  1 14  1  0  0  0  0
  2  3  1  0  0  0  0
  2 15  1  0  0  0  0
  2 16  1  0  0  0  0
  3  4  1  0  0  0  0
  3 17  1  0  0  0  0
  3 18  1  0  0  0  0
  4  5  1  0  0  0  0
  4 19  1  0  0  0  0
  4 20  1  0  0  0  0
  5  6  1  0  0  0  0
  5 21  1  0  0  0  0
  5 22  1  0  0  0  0
  6  7  1  0  0  0  0
  6 23  1  0  0  0  0
  6 24  1  0  0  0  0
  7  8  1  0  0  0  0
  7 25  1  0  0  0  0
  7 26  1  0  0  0  0
  8  9  1  0  0  0  0
  8 10  1  0  0  0  0
  8 11  1  0  0  0  0
  9 27  1  0  0  0  0
  9 28  1  0  0  0  0
  9 29  1  0  0  0  0
 10 30  1  0  0  0  0
 10 31  1  0  0  0  0
 10 32  1  0  0  0  0
 11 33  1  0  0  0  0
 11 34  1  0  0  0  0
 11 35  1  0  0  0  0
M  END
$$$$
