
  -OEChem-08192616593D

 26 25  0     0  0  0  0  0  0999 V2000
    1.0210    3.1956   -6.1256 H   0  0  0  0  0  0  0  0  0  0  0  0
    1.0051    4.2513   -5.8332 C   0  0  0  0  0  0  0  0  0  0  0  0
    1.9731    4.4861   -5.3754 H   0  0  0  0  0  0  0  0  0  0  0  0
    0.9160    4.8433   -6.7511 H   0  0  0  0  0  0  0  0  0  0  0  0
   -0.1550    4.5529   -4.8721 C   0  0  0  0  0  0  0  0  0  0  0  0
   -0.1487    5.6357   -4.6841 H   0  0  0  0  0  0  0  0  0  0  0  0
    0.0285    3.8770   -3.4973 C   0  0  0  0  0  0  0  0  0  0  0  0
    0.0590    2.3426   -3.4978 C   0  0  0  0  0  0  0  0  0  0  0  0
    0.2387    1.7625   -2.0886 C   0  0  0  0  0  0  0  0  0  0  0  0
    0.3583    0.2315   -2.0414 C   0  0  0  0  0  0  0  0  0  0  0  0
   -0.9018   -0.5120   -2.5036 C   0  0  0  0  0  0  0  0  0  0  0  0
   -1.5065    4.2118   -5.5185 C   0  0  0  0  0  0  0  0  0  0  0  0
   -2.3384    4.4183   -4.8352 H   0  0  0  0  0  0  0  0  0  0  0  0
   -1.5616    3.1551   -5.8024 H   0  0  0  0  0  0  0  0  0  0  0  0
   -1.6649    4.8028   -6.4276 H   0  0  0  0  0  0  0  0  0  0  0  0
   -0.7808    4.2120   -2.8338 H   0  0  0  0  0  0  0  0  0  0  0  0
    0.9606    4.2476   -3.0487 H   0  0  0  0  0  0  0  0  0  0  0  0
   -0.8669    1.9568   -3.9382 H   0  0  0  0  0  0  0  0  0  0  0  0
    0.8776    1.9839   -4.1349 H   0  0  0  0  0  0  0  0  0  0  0  0
    1.1387    2.2020   -1.6378 H   0  0  0  0  0  0  0  0  0  0  0  0
   -0.6035    2.0787   -1.4569 H   0  0  0  0  0  0  0  0  0  0  0  0
    1.2133   -0.0830   -2.6550 H   0  0  0  0  0  0  0  0  0  0  0  0
    0.5933   -0.0714   -1.0131 H   0  0  0  0  0  0  0  0  0  0  0  0
   -0.7882   -1.5947   -2.3816 H   0  0  0  0  0  0  0  0  0  0  0  0
   -1.7767   -0.2009   -1.9201 H   0  0  0  0  0  0  0  0  0  0  0  0
   -1.1229   -0.3221   -3.5588 H   0  0  0  0  0  0  0  0  0  0  0  0
  1  2  1  0  0  0  0
  2  3  1  0  0  0  0
  2  4  1  0  0  0  0
  2  5  1  0  0  0  0
  5  6  1  0  0  0  0
  5  7  1  0  0  0  0
  5 12  1  0  0  0  0
  7  8  1  0  0  0  0
  7 16  1  0  0  0  0
  7 17  1  0  0  0  0
  8  9  1  0  0  0  0
  8 18  1  0  0  0  0
  8 19  1  0  0  0  0
  9 10  1  0  0  0  0
  9 20  1  0  0  0  0
  9 21  1  0  0  0  0
 10 11  1  0  0  0  0
 10 22  1  0  0  0  0
 10 23  1  0  0  0  0
 11 24  1  0  0  0  0
 11 25  1  0  0  0  0
 11 26  1  0  0  0  0
 12 13  1  0  0  0  0
 12 14  1  0  0  0  0
 12 15  1  0  0  0  0
M  END
$$$$
