
  -OEChem-08192616593D

 29 28  0     0  0  0  0  0  0999 V2000
   -1.9851   -1.1985    1.1179 C   0  0  0  0  0  0  0  0  0  0  0  0
   -0.5118   -1.5780    1.3173 C   0  0  0  0  0  0  0  0  0  0  0  0
   -0.2709   -3.0815    1.5244 C   0  0  0  0  0  0  0  0  0  0  0  0
   -0.8885   -3.6548    2.8063 C   0  0  0  0  0  0  0  0  0  0  0  0
   -0.5580   -5.1366    3.0230 C   0  0  0  0  0  0  0  0  0  0  0  0
   -1.1766   -5.7069    4.3050 C   0  0  0  0  0  0  0  0  0  0  0  0
   -0.9736   -7.2184    4.5147 C   0  0  0  0  0  0  0  0  0  0  0  0
   -1.7700   -7.7022    5.7355 C   0  0  0  0  0  0  0  0  0  0  0  0
    0.5088   -7.5950    4.6569 C   0  0  0  0  0  0  0  0  0  0  0  0
   -2.0919   -0.1285    0.9088 H   0  0  0  0  0  0  0  0  0  0  0  0
   -2.4208   -1.7479    0.2746 H   0  0  0  0  0  0  0  0  0  0  0  0
   -2.5868   -1.4214    2.0048 H   0  0  0  0  0  0  0  0  0  0  0  0
    0.0624   -1.2471    0.4427 H   0  0  0  0  0  0  0  0  0  0  0  0
   -0.1059   -1.0260    2.1757 H   0  0  0  0  0  0  0  0  0  0  0  0
    0.8114   -3.2672    1.5407 H   0  0  0  0  0  0  0  0  0  0  0  0
   -0.6615   -3.6326    0.6572 H   0  0  0  0  0  0  0  0  0  0  0  0
   -0.5330   -3.0739    3.6693 H   0  0  0  0  0  0  0  0  0  0  0  0
   -1.9785   -3.5322    2.7843 H   0  0  0  0  0  0  0  0  0  0  0  0
    0.5319   -5.2582    3.0442 H   0  0  0  0  0  0  0  0  0  0  0  0
   -0.9142   -5.7166    2.1599 H   0  0  0  0  0  0  0  0  0  0  0  0
   -0.7715   -5.1692    5.1748 H   0  0  0  0  0  0  0  0  0  0  0  0
   -2.2553   -5.4984    4.2962 H   0  0  0  0  0  0  0  0  0  0  0  0
   -1.3699   -7.7341    3.6279 H   0  0  0  0  0  0  0  0  0  0  0  0
   -1.6705   -8.7849    5.8730 H   0  0  0  0  0  0  0  0  0  0  0  0
   -1.4115   -7.2168    6.6518 H   0  0  0  0  0  0  0  0  0  0  0  0
   -2.8366   -7.4727    5.6329 H   0  0  0  0  0  0  0  0  0  0  0  0
    0.6247   -8.6695    4.8382 H   0  0  0  0  0  0  0  0  0  0  0  0
    1.0838   -7.3481    3.7593 H   0  0  0  0  0  0  0  0  0  0  0  0
    0.9637   -7.0643    5.5030 H   0  0  0  0  0  0  0  0  0  0  0  0
  1  2  1  0  0  0  0
  1 10  1  0  0  0  0
  1 11  1  0  0  0  0
  1 12  1  0  0  0  0
  2  3  1  0  0  0  0
  2 13  1  0  0  0  0
  2 14  1  0  0  0  0
  3  4  1  0  0  0  0
  3 15  1  0  0  0  0
  3 16  1  0  0  0  0
  4  5  1  0  0  0  0
  4 17  1  0  0  0  0
  4 18  1  0  0  0  0
  5  6  1  0  0  0  0
  5 19  1  0  0  0  0
  5 20  1  0  0  0  0
  6  7  1  0  0  0  0
  6 21  1  0  0  0  0
  6 22  1  0  0  0  0
  7  8  1  0  0  0  0
  7  9  1  0  0  0  0
  7 23  1  0  0  0  0
  8 24  1  0  0  0  0
  8 25  1  0  0  0  0
  8 26  1  0  0  0  0
  9 27  1  0  0  0  0
  9 28  1  0  0  0  0
  9 29  1  0  0  0  0
M  END
$$$$
