
  -OEChem-08192616593D

 56 55  0     1  0  0  0  0  0999 V2000
    4.1167    0.0682   -3.0361 C   0  0  0  0  0  0  0  0  0  0  0  0
    2.9352    1.0440   -3.0027 C   0  0  0  0  0  0  0  0  0  0  0  0
    3.1429    2.1843   -1.9983 C   0  0  0  0  0  0  0  0  0  0  0  0
    2.0193    3.2391   -1.9510 C   0  0  2  0  0  0  0  0  0  0  0  0
    2.3379    4.3081   -0.8944 C   0  0  0  0  0  0  0  0  0  0  0  0
    0.6150    2.6314   -1.7482 C   0  0  0  0  0  0  0  0  0  0  0  0
    0.4536    1.7452   -0.5062 C   0  0  0  0  0  0  0  0  0  0  0  0
   -0.8941    1.0158   -0.4753 C   0  0  0  0  0  0  0  0  0  0  0  0
   -1.0596    0.0028    0.6739 C   0  0  0  0  0  0  0  0  0  0  0  0
   -2.4385   -0.6707    0.5946 C   0  0  0  0  0  0  0  0  0  0  0  0
    0.0827   -1.0359    0.7388 C   0  0  0  0  0  0  0  0  0  0  0  0
    0.3663   -1.7952   -0.5647 C   0  0  0  0  0  0  0  0  0  0  0  0
    1.5346   -2.7799   -0.4269 C   0  0  0  0  0  0  0  0  0  0  0  0
    2.0137   -3.4005   -1.7522 C   0  0  2  0  0  0  0  0  0  0  0  0
    0.8877   -4.1645   -2.4658 C   0  0  0  0  0  0  0  0  0  0  0  0
    3.2288   -4.3257   -1.5491 C   0  0  0  0  0  0  0  0  0  0  0  0
    4.5012   -3.6449   -1.0280 C   0  0  0  0  0  0  0  0  0  0  0  0
    5.6986   -4.6012   -0.9746 C   0  0  0  0  0  0  0  0  0  0  0  0
    3.9467   -0.7445   -3.7508 H   0  0  0  0  0  0  0  0  0  0  0  0
    4.2770   -0.3849   -2.0511 H   0  0  0  0  0  0  0  0  0  0  0  0
    5.0451    0.5767   -3.3215 H   0  0  0  0  0  0  0  0  0  0  0  0
    2.7730    1.4641   -4.0044 H   0  0  0  0  0  0  0  0  0  0  0  0
    2.0240    0.4876   -2.7544 H   0  0  0  0  0  0  0  0  0  0  0  0
    4.0847    2.6971   -2.2369 H   0  0  0  0  0  0  0  0  0  0  0  0
    3.2870    1.7571   -0.9969 H   0  0  0  0  0  0  0  0  0  0  0  0
    2.0025    3.7400   -2.9300 H   0  0  0  0  0  0  0  0  0  0  0  0
    1.5684    5.0883   -0.8743 H   0  0  0  0  0  0  0  0  0  0  0  0
    3.2998    4.7913   -1.1002 H   0  0  0  0  0  0  0  0  0  0  0  0
    2.3980    3.8729    0.1094 H   0  0  0  0  0  0  0  0  0  0  0  0
   -0.1195    3.4472   -1.7126 H   0  0  0  0  0  0  0  0  0  0  0  0
    0.3553    2.0377   -2.6333 H   0  0  0  0  0  0  0  0  0  0  0  0
    0.5686    2.3416    0.4079 H   0  0  0  0  0  0  0  0  0  0  0  0
    1.2609    1.0077   -0.4887 H   0  0  0  0  0  0  0  0  0  0  0  0
   -1.0406    0.4973   -1.4321 H   0  0  0  0  0  0  0  0  0  0  0  0
   -1.7047    1.7543   -0.4124 H   0  0  0  0  0  0  0  0  0  0  0  0
   -1.0239    0.5650    1.6183 H   0  0  0  0  0  0  0  0  0  0  0  0
   -2.5919   -1.3626    1.4305 H   0  0  0  0  0  0  0  0  0  0  0  0
   -2.5540   -1.2397   -0.3348 H   0  0  0  0  0  0  0  0  0  0  0  0
   -3.2422    0.0737    0.6241 H   0  0  0  0  0  0  0  0  0  0  0  0
    1.0049   -0.5365    1.0601 H   0  0  0  0  0  0  0  0  0  0  0  0
   -0.1512   -1.7607    1.5304 H   0  0  0  0  0  0  0  0  0  0  0  0
   -0.5363   -2.3250   -0.8872 H   0  0  0  0  0  0  0  0  0  0  0  0
    0.6051   -1.0833   -1.3645 H   0  0  0  0  0  0  0  0  0  0  0  0
    1.2563   -3.5867    0.2669 H   0  0  0  0  0  0  0  0  0  0  0  0
    2.3724   -2.2506    0.0424 H   0  0  0  0  0  0  0  0  0  0  0  0
    2.3304   -2.5761   -2.4089 H   0  0  0  0  0  0  0  0  0  0  0  0
    1.2522   -4.6254   -3.3906 H   0  0  0  0  0  0  0  0  0  0  0  0
    0.0516   -3.5107   -2.7310 H   0  0  0  0  0  0  0  0  0  0  0  0
    0.4954   -4.9662   -1.8272 H   0  0  0  0  0  0  0  0  0  0  0  0
    3.4633   -4.8044   -2.5098 H   0  0  0  0  0  0  0  0  0  0  0  0
    2.9479   -5.1415   -0.8670 H   0  0  0  0  0  0  0  0  0  0  0  0
    4.7434   -2.7914   -1.6744 H   0  0  0  0  0  0  0  0  0  0  0  0
    4.3282   -3.2332   -0.0272 H   0  0  0  0  0  0  0  0  0  0  0  0
    6.5964   -4.0988   -0.5982 H   0  0  0  0  0  0  0  0  0  0  0  0
    5.9309   -4.9999   -1.9690 H   0  0  0  0  0  0  0  0  0  0  0  0
    5.4932   -5.4541   -0.3170 H   0  0  0  0  0  0  0  0  0  0  0  0
  1  2  1  0  0  0  0
  1 19  1  0  0  0  0
  1 20  1  0  0  0  0
  1 21  1  0  0  0  0
  2  3  1  0  0  0  0
  2 22  1  0  0  0  0
  2 23  1  0  0  0  0
  3  4  1  0  0  0  0
  3 24  1  0  0  0  0
  3 25  1  0  0  0  0
  4  5  1  0  0  0  0
  4  6  1  0  0  0  0
  4 26  1  0  0  0  0
  5 27  1  0  0  0  0
  5 28  1  0  0  0  0
  5 29  1  0  0  0  0
  6  7  1  0  0  0  0
  6 30  1  0  0  0  0
  6 31  1  0  0  0  0
  7  8  1  0  0  0  0
  7 32  1  0  0  0  0
  7 33  1  0  0  0  0
  8  9  1  0  0  0  0
  8 34  1  0  0  0  0
  8 35  1  0  0  0  0
  9 10  1  0  0  0  0
  9 11  1  0  0  0  0
  9 36  1  0  0  0  0
 10 37  1  0  0  0  0
 10 38  1  0  0  0  0
 10 39  1  0  0  0  0
 11 12  1  0  0  0  0
 11 40  1  0  0  0  0
 11 41  1  0  0  0  0
 12 13  1  0  0  0  0
 12 42  1  0  0  0  0
 12 43  1  0  0  0  0
 13 14  1  0  0  0  0
 13 44  1  0  0  0  0
 13 45  1  0  0  0  0
 14 15  1  0  0  0  0
 14 16  1  0  0  0  0
 14 46  1  0  0  0  0
 15 47  1  0  0  0  0
 15 48  1  0  0  0  0
 15 49  1  0  0  0  0
 16 17  1  0  0  0  0
 16 50  1  0  0  0  0
 16 51  1  0  0  0  0
 17 18  1  0  0  0  0
 17 52  1  0  0  0  0
 17 53  1  0  0  0  0
 18 54  1  0  0  0  0
 18 55  1  0  0  0  0
 18 56  1  0  0  0  0
M  END
$$$$
