
  -OEChem-08192616593D

 35 34  0     0  0  0  0  0  0999 V2000
   -5.1827   -1.4294    3.3550 C   0  0  0  0  0  0  0  0  0  0  0  0
   -3.9175   -0.6542    2.9699 C   0  0  0  0  0  0  0  0  0  0  0  0
   -3.0855   -1.3592    1.8920 C   0  0  0  0  0  0  0  0  0  0  0  0
   -1.8173   -0.5927    1.4996 C   0  0  0  0  0  0  0  0  0  0  0  0
   -0.9865   -1.2991    0.4223 C   0  0  0  0  0  0  0  0  0  0  0  0
    0.2806   -0.5296    0.0285 C   0  0  0  0  0  0  0  0  0  0  0  0
    1.0961   -1.2557   -1.0487 C   0  0  0  0  0  0  0  0  0  0  0  0
    2.3970   -0.5675   -1.5301 C   0  0  0  0  0  0  0  0  0  0  0  0
    3.3860   -0.3882   -0.3632 C   0  0  0  0  0  0  0  0  0  0  0  0
    3.0455   -1.4700   -2.5973 C   0  0  0  0  0  0  0  0  0  0  0  0
    2.0904    0.8043   -2.1594 C   0  0  0  0  0  0  0  0  0  0  0  0
   -5.7574   -0.9035    4.1252 H   0  0  0  0  0  0  0  0  0  0  0  0
   -5.8384   -1.5707    2.4878 H   0  0  0  0  0  0  0  0  0  0  0  0
   -4.9333   -2.4231    3.7451 H   0  0  0  0  0  0  0  0  0  0  0  0
   -3.2965   -0.4996    3.8622 H   0  0  0  0  0  0  0  0  0  0  0  0
   -4.1950    0.3472    2.6147 H   0  0  0  0  0  0  0  0  0  0  0  0
   -2.8089   -2.3619    2.2469 H   0  0  0  0  0  0  0  0  0  0  0  0
   -3.7072   -1.5143    0.9991 H   0  0  0  0  0  0  0  0  0  0  0  0
   -1.1963   -0.4377    2.3928 H   0  0  0  0  0  0  0  0  0  0  0  0
   -2.0945    0.4097    1.1448 H   0  0  0  0  0  0  0  0  0  0  0  0
   -0.7076   -2.3006    0.7781 H   0  0  0  0  0  0  0  0  0  0  0  0
   -1.6081   -1.4564   -0.4701 H   0  0  0  0  0  0  0  0  0  0  0  0
   -0.0066    0.4683   -0.3249 H   0  0  0  0  0  0  0  0  0  0  0  0
    0.8939   -0.3749    0.9246 H   0  0  0  0  0  0  0  0  0  0  0  0
    0.4515   -1.4198   -1.9237 H   0  0  0  0  0  0  0  0  0  0  0  0
    1.3560   -2.2560   -0.6749 H   0  0  0  0  0  0  0  0  0  0  0  0
    4.3391    0.0171   -0.7220 H   0  0  0  0  0  0  0  0  0  0  0  0
    3.5942   -1.3461    0.1282 H   0  0  0  0  0  0  0  0  0  0  0  0
    3.0007    0.3013    0.3946 H   0  0  0  0  0  0  0  0  0  0  0  0
    3.9741   -1.0279   -2.9766 H   0  0  0  0  0  0  0  0  0  0  0  0
    3.2881   -2.4568   -2.1859 H   0  0  0  0  0  0  0  0  0  0  0  0
    2.3730   -1.6194   -3.4501 H   0  0  0  0  0  0  0  0  0  0  0  0
    3.0006    1.2521   -2.5748 H   0  0  0  0  0  0  0  0  0  0  0  0
    1.6845    1.5075   -1.4252 H   0  0  0  0  0  0  0  0  0  0  0  0
    1.3625    0.7107   -2.9741 H   0  0  0  0  0  0  0  0  0  0  0  0
  1  2  1  0  0  0  0
  1 12  1  0  0  0  0
  1 13  1  0  0  0  0
  1 14  1  0  0  0  0
  2  3  1  0  0  0  0
  2 15  1  0  0  0  0
  2 16  1  0  0  0  0
  3  4  1  0  0  0  0
  3 17  1  0  0  0  0
  3 18  1  0  0  0  0
  4  5  1  0  0  0  0
  4 19  1  0  0  0  0
  4 20  1  0  0  0  0
  5  6  1  0  0  0  0
  5 21  1  0  0  0  0
  5 22  1  0  0  0  0
  6  7  1  0  0  0  0
  6 23  1  0  0  0  0
  6 24  1  0  0  0  0
  7  8  1  0  0  0  0
  7 25  1  0  0  0  0
  7 26  1  0  0  0  0
  8  9  1  0  0  0  0
  8 10  1  0  0  0  0
  8 11  1  0  0  0  0
  9 27  1  0  0  0  0
  9 28  1  0  0  0  0
  9 29  1  0  0  0  0
 10 30  1  0  0  0  0
 10 31  1  0  0  0  0
 10 32  1  0  0  0  0
 11 33  1  0  0  0  0
 11 34  1  0  0  0  0
 11 35  1  0  0  0  0
M  END
$$$$
