
  -OEChem-08192616593D

 26 25  0     0  0  0  0  0  0999 V2000
    0.7629    6.4854   -4.2779 H   0  0  0  0  0  0  0  0  0  0  0  0
   -0.1753    6.1096   -4.7051 C   0  0  0  0  0  0  0  0  0  0  0  0
   -0.9890    6.4075   -4.0341 H   0  0  0  0  0  0  0  0  0  0  0  0
   -0.3295    6.6150   -5.6651 H   0  0  0  0  0  0  0  0  0  0  0  0
   -0.1247    4.5846   -4.8785 C   0  0  0  0  0  0  0  0  0  0  0  0
   -1.0820    4.2700   -5.3146 H   0  0  0  0  0  0  0  0  0  0  0  0
    0.0290    3.9000   -3.5069 C   0  0  0  0  0  0  0  0  0  0  0  0
    0.0636    2.3638   -3.5155 C   0  0  0  0  0  0  0  0  0  0  0  0
   -1.1868    1.7027   -4.1081 C   0  0  0  0  0  0  0  0  0  0  0  0
   -1.1729    0.1739   -3.9920 C   0  0  0  0  0  0  0  0  0  0  0  0
   -2.4206   -0.4856   -4.5902 C   0  0  0  0  0  0  0  0  0  0  0  0
    0.9922    4.1879   -5.8545 C   0  0  0  0  0  0  0  0  0  0  0  0
    0.9854    3.1153   -6.0726 H   0  0  0  0  0  0  0  0  0  0  0  0
    1.9775    4.4379   -5.4411 H   0  0  0  0  0  0  0  0  0  0  0  0
    0.8870    4.7190   -6.8072 H   0  0  0  0  0  0  0  0  0  0  0  0
   -0.7958    4.2300   -2.8602 H   0  0  0  0  0  0  0  0  0  0  0  0
    0.9508    4.2707   -3.0366 H   0  0  0  0  0  0  0  0  0  0  0  0
    0.9507    2.0113   -4.0566 H   0  0  0  0  0  0  0  0  0  0  0  0
    0.1893    2.0174   -2.4810 H   0  0  0  0  0  0  0  0  0  0  0  0
   -2.0803    2.0973   -3.6035 H   0  0  0  0  0  0  0  0  0  0  0  0
   -1.2901    1.9771   -5.1658 H   0  0  0  0  0  0  0  0  0  0  0  0
   -0.2764   -0.2175   -4.4913 H   0  0  0  0  0  0  0  0  0  0  0  0
   -1.0800   -0.1078   -2.9348 H   0  0  0  0  0  0  0  0  0  0  0  0
   -2.3843   -1.5762   -4.4932 H   0  0  0  0  0  0  0  0  0  0  0  0
   -3.3306   -0.1361   -4.0884 H   0  0  0  0  0  0  0  0  0  0  0  0
   -2.5200   -0.2487   -5.6560 H   0  0  0  0  0  0  0  0  0  0  0  0
  1  2  1  0  0  0  0
  2  3  1  0  0  0  0
  2  4  1  0  0  0  0
  2  5  1  0  0  0  0
  5  6  1  0  0  0  0
  5  7  1  0  0  0  0
  5 12  1  0  0  0  0
  7  8  1  0  0  0  0
  7 16  1  0  0  0  0
  7 17  1  0  0  0  0
  8  9  1  0  0  0  0
  8 18  1  0  0  0  0
  8 19  1  0  0  0  0
  9 10  1  0  0  0  0
  9 20  1  0  0  0  0
  9 21  1  0  0  0  0
 10 11  1  0  0  0  0
 10 22  1  0  0  0  0
 10 23  1  0  0  0  0
 11 24  1  0  0  0  0
 11 25  1  0  0  0  0
 11 26  1  0  0  0  0
 12 13  1  0  0  0  0
 12 14  1  0  0  0  0
 12 15  1  0  0  0  0
M  END
$$$$
