
  -OEChem-08192616593D

 35 34  0     0  0  0  0  0  0999 V2000
   -4.1860   -3.4869    2.8987 C   0  0  0  0  0  0  0  0  0  0  0  0
   -2.8649   -2.8286    2.4845 C   0  0  0  0  0  0  0  0  0  0  0  0
   -3.0646   -1.4434    1.8549 C   0  0  0  0  0  0  0  0  0  0  0  0
   -1.7635   -0.7068    1.5029 C   0  0  0  0  0  0  0  0  0  0  0  0
   -0.9229   -1.3835    0.4124 C   0  0  0  0  0  0  0  0  0  0  0  0
    0.3169   -0.5707    0.0190 C   0  0  0  0  0  0  0  0  0  0  0  0
    1.1482   -1.2602   -1.0700 C   0  0  0  0  0  0  0  0  0  0  0  0
    2.4226   -0.5257   -1.5531 C   0  0  0  0  0  0  0  0  0  0  0  0
    3.4136   -0.3260   -0.3913 C   0  0  0  0  0  0  0  0  0  0  0  0
    3.0923   -1.3962   -2.6336 C   0  0  0  0  0  0  0  0  0  0  0  0
    2.0676    0.8417   -2.1664 C   0  0  0  0  0  0  0  0  0  0  0  0
   -4.0204   -4.4724    3.3476 H   0  0  0  0  0  0  0  0  0  0  0  0
   -4.7215   -2.8717    3.6314 H   0  0  0  0  0  0  0  0  0  0  0  0
   -4.8473   -3.6211    2.0346 H   0  0  0  0  0  0  0  0  0  0  0  0
   -2.3402   -3.4860    1.7813 H   0  0  0  0  0  0  0  0  0  0  0  0
   -2.2109   -2.7334    3.3619 H   0  0  0  0  0  0  0  0  0  0  0  0
   -3.6806   -1.5440    0.9501 H   0  0  0  0  0  0  0  0  0  0  0  0
   -3.6458   -0.8228    2.5502 H   0  0  0  0  0  0  0  0  0  0  0  0
   -1.1545   -0.5930    2.4107 H   0  0  0  0  0  0  0  0  0  0  0  0
   -2.0121    0.3113    1.1745 H   0  0  0  0  0  0  0  0  0  0  0  0
   -0.6052   -2.3787    0.7477 H   0  0  0  0  0  0  0  0  0  0  0  0
   -1.5486   -1.5461   -0.4767 H   0  0  0  0  0  0  0  0  0  0  0  0
   -0.0033    0.4214   -0.3223 H   0  0  0  0  0  0  0  0  0  0  0  0
    0.9304   -0.4060    0.9133 H   0  0  0  0  0  0  0  0  0  0  0  0
    0.5034   -1.4370   -1.9424 H   0  0  0  0  0  0  0  0  0  0  0  0
    1.4428   -2.2550   -0.7073 H   0  0  0  0  0  0  0  0  0  0  0  0
    4.3504    0.1138   -0.7526 H   0  0  0  0  0  0  0  0  0  0  0  0
    3.6566   -1.2815    0.0886 H   0  0  0  0  0  0  0  0  0  0  0  0
    3.0116    0.3429    0.3763 H   0  0  0  0  0  0  0  0  0  0  0  0
    4.0035   -0.9207   -3.0148 H   0  0  0  0  0  0  0  0  0  0  0  0
    3.3694   -2.3786   -2.2338 H   0  0  0  0  0  0  0  0  0  0  0  0
    2.4190   -1.5587   -3.4834 H   0  0  0  0  0  0  0  0  0  0  0  0
    2.9599    1.3223   -2.5838 H   0  0  0  0  0  0  0  0  0  0  0  0
    1.6449    1.5243   -1.4224 H   0  0  0  0  0  0  0  0  0  0  0  0
    1.3370    0.7327   -2.9768 H   0  0  0  0  0  0  0  0  0  0  0  0
  1  2  1  0  0  0  0
  1 12  1  0  0  0  0
  1 13  1  0  0  0  0
  1 14  1  0  0  0  0
  2  3  1  0  0  0  0
  2 15  1  0  0  0  0
  2 16  1  0  0  0  0
  3  4  1  0  0  0  0
  3 17  1  0  0  0  0
  3 18  1  0  0  0  0
  4  5  1  0  0  0  0
  4 19  1  0  0  0  0
  4 20  1  0  0  0  0
  5  6  1  0  0  0  0
  5 21  1  0  0  0  0
  5 22  1  0  0  0  0
  6  7  1  0  0  0  0
  6 23  1  0  0  0  0
  6 24  1  0  0  0  0
  7  8  1  0  0  0  0
  7 25  1  0  0  0  0
  7 26  1  0  0  0  0
  8  9  1  0  0  0  0
  8 10  1  0  0  0  0
  8 11  1  0  0  0  0
  9 27  1  0  0  0  0
  9 28  1  0  0  0  0
  9 29  1  0  0  0  0
 10 30  1  0  0  0  0
 10 31  1  0  0  0  0
 10 32  1  0  0  0  0
 11 33  1  0  0  0  0
 11 34  1  0  0  0  0
 11 35  1  0  0  0  0
M  END
$$$$
