
  -OEChem-08192616593D

 29 28  0     1  0  0  0  0  0999 V2000
    3.3076    1.3634   -1.0460 C   0  0  0  0  0  0  0  0  0  0  0  0
    2.3457    0.2721   -0.5628 C   0  0  0  0  0  0  0  0  0  0  0  0
    1.5158    0.7094    0.6510 C   0  0  0  0  0  0  0  0  0  0  0  0
    0.6072   -0.3854    1.2307 C   0  0  0  0  0  0  0  0  0  0  0  0
   -0.4392   -0.9924    0.2723 C   0  0  1  0  0  0  0  0  0  0  0  0
    0.1083   -1.5019   -0.5327 H   0  0  0  0  0  0  0  0  0  0  0  0
   -1.2448   -2.0706    1.0155 C   0  0  0  0  0  0  0  0  0  0  0  0
   -1.3276    0.0727   -0.4206 C   0  0  0  0  0  0  0  0  0  0  0  0
   -2.1533    0.9211    0.5591 C   0  0  0  0  0  0  0  0  0  0  0  0
   -2.2372   -0.5473   -1.4932 C   0  0  0  0  0  0  0  0  0  0  0  0
    3.8885    1.0320   -1.9137 H   0  0  0  0  0  0  0  0  0  0  0  0
    4.0153    1.6442   -0.2573 H   0  0  0  0  0  0  0  0  0  0  0  0
    2.7616    2.2687   -1.3366 H   0  0  0  0  0  0  0  0  0  0  0  0
    2.9136   -0.6319   -0.3045 H   0  0  0  0  0  0  0  0  0  0  0  0
    1.6805   -0.0118   -1.3871 H   0  0  0  0  0  0  0  0  0  0  0  0
    0.9226    1.5930    0.3831 H   0  0  0  0  0  0  0  0  0  0  0  0
    2.2002    1.0418    1.4431 H   0  0  0  0  0  0  0  0  0  0  0  0
    1.2403   -1.2049    1.5975 H   0  0  0  0  0  0  0  0  0  0  0  0
    0.0957    0.0114    2.1171 H   0  0  0  0  0  0  0  0  0  0  0  0
   -1.9455   -2.5905    0.3555 H   0  0  0  0  0  0  0  0  0  0  0  0
   -1.8180   -1.6445    1.8464 H   0  0  0  0  0  0  0  0  0  0  0  0
   -0.5718   -2.8249    1.4381 H   0  0  0  0  0  0  0  0  0  0  0  0
   -0.6465    0.7544   -0.9456 H   0  0  0  0  0  0  0  0  0  0  0  0
   -2.7146    1.6915    0.0186 H   0  0  0  0  0  0  0  0  0  0  0  0
   -2.8811    0.3107    1.1049 H   0  0  0  0  0  0  0  0  0  0  0  0
   -1.5231    1.4291    1.2956 H   0  0  0  0  0  0  0  0  0  0  0  0
   -2.7267    0.2344   -2.0849 H   0  0  0  0  0  0  0  0  0  0  0  0
   -3.0276   -1.1626   -1.0501 H   0  0  0  0  0  0  0  0  0  0  0  0
   -1.6664   -1.1805   -2.1825 H   0  0  0  0  0  0  0  0  0  0  0  0
  1  2  1  0  0  0  0
  1 11  1  0  0  0  0
  1 12  1  0  0  0  0
  1 13  1  0  0  0  0
  2  3  1  0  0  0  0
  2 14  1  0  0  0  0
  2 15  1  0  0  0  0
  3  4  1  0  0  0  0
  3 16  1  0  0  0  0
  3 17  1  0  0  0  0
  4  5  1  0  0  0  0
  4 18  1  0  0  0  0
  4 19  1  0  0  0  0
  5  6  1  0  0  0  0
  5  7  1  0  0  0  0
  5  8  1  0  0  0  0
  7 20  1  0  0  0  0
  7 21  1  0  0  0  0
  7 22  1  0  0  0  0
  8  9  1  0  0  0  0
  8 10  1  0  0  0  0
  8 23  1  0  0  0  0
  9 24  1  0  0  0  0
  9 25  1  0  0  0  0
  9 26  1  0  0  0  0
 10 27  1  0  0  0  0
 10 28  1  0  0  0  0
 10 29  1  0  0  0  0
M  END
$$$$
