
  -OEChem-08192616593D

 29 28  0     0  0  0  0  0  0999 V2000
    0.3325   -1.0061    0.0691 C   0  0  0  0  0  0  0  0  0  0  0  0
   -0.4329   -1.5630    1.2749 C   0  0  0  0  0  0  0  0  0  0  0  0
   -0.1595   -3.0507    1.5254 C   0  0  0  0  0  0  0  0  0  0  0  0
   -0.9220   -3.6181    2.7280 C   0  0  0  0  0  0  0  0  0  0  0  0
   -0.6476   -5.1082    2.9657 C   0  0  0  0  0  0  0  0  0  0  0  0
   -1.3145   -5.6863    4.2236 C   0  0  0  0  0  0  0  0  0  0  0  0
   -2.8505   -5.5846    4.2868 C   0  0  0  0  0  0  0  0  0  0  0  0
   -3.3655   -6.1748    5.6076 C   0  0  0  0  0  0  0  0  0  0  0  0
   -3.5280   -6.2661    3.0893 C   0  0  0  0  0  0  0  0  0  0  0  0
    0.1185    0.0570   -0.0866 H   0  0  0  0  0  0  0  0  0  0  0  0
    1.4151   -1.1120    0.2055 H   0  0  0  0  0  0  0  0  0  0  0  0
    0.0623   -1.5390   -0.8501 H   0  0  0  0  0  0  0  0  0  0  0  0
   -0.1677   -0.9906    2.1737 H   0  0  0  0  0  0  0  0  0  0  0  0
   -1.5105   -1.4137    1.1256 H   0  0  0  0  0  0  0  0  0  0  0  0
    0.9190   -3.2008    1.6740 H   0  0  0  0  0  0  0  0  0  0  0  0
   -0.4241   -3.6235    0.6254 H   0  0  0  0  0  0  0  0  0  0  0  0
   -0.6531   -3.0513    3.6306 H   0  0  0  0  0  0  0  0  0  0  0  0
   -1.9965   -3.4553    2.5762 H   0  0  0  0  0  0  0  0  0  0  0  0
    0.4368   -5.2581    3.0522 H   0  0  0  0  0  0  0  0  0  0  0  0
   -0.9568   -5.6789    2.0811 H   0  0  0  0  0  0  0  0  0  0  0  0
   -1.0339   -6.7452    4.3160 H   0  0  0  0  0  0  0  0  0  0  0  0
   -0.8971   -5.1834    5.1068 H   0  0  0  0  0  0  0  0  0  0  0  0
   -3.1258   -4.5218    4.2708 H   0  0  0  0  0  0  0  0  0  0  0  0
   -4.4526   -6.0674    5.6952 H   0  0  0  0  0  0  0  0  0  0  0  0
   -3.1301   -7.2443    5.6755 H   0  0  0  0  0  0  0  0  0  0  0  0
   -2.9081   -5.6782    6.4710 H   0  0  0  0  0  0  0  0  0  0  0  0
   -4.6192   -6.2175    3.1766 H   0  0  0  0  0  0  0  0  0  0  0  0
   -3.2520   -5.7971    2.1396 H   0  0  0  0  0  0  0  0  0  0  0  0
   -3.2454   -7.3250    3.0329 H   0  0  0  0  0  0  0  0  0  0  0  0
  1  2  1  0  0  0  0
  1 10  1  0  0  0  0
  1 11  1  0  0  0  0
  1 12  1  0  0  0  0
  2  3  1  0  0  0  0
  2 13  1  0  0  0  0
  2 14  1  0  0  0  0
  3  4  1  0  0  0  0
  3 15  1  0  0  0  0
  3 16  1  0  0  0  0
  4  5  1  0  0  0  0
  4 17  1  0  0  0  0
  4 18  1  0  0  0  0
  5  6  1  0  0  0  0
  5 19  1  0  0  0  0
  5 20  1  0  0  0  0
  6  7  1  0  0  0  0
  6 21  1  0  0  0  0
  6 22  1  0  0  0  0
  7  8  1  0  0  0  0
  7  9  1  0  0  0  0
  7 23  1  0  0  0  0
  8 24  1  0  0  0  0
  8 25  1  0  0  0  0
  8 26  1  0  0  0  0
  9 27  1  0  0  0  0
  9 28  1  0  0  0  0
  9 29  1  0  0  0  0
M  END
$$$$
