
  -OEChem-08192616593D

 50 49  0     1  0  0  0  0  0999 V2000
    1.3415   -5.5822   -3.1529 C   0  0  0  0  0  0  0  0  0  0  0  0
    0.1724   -4.6027   -2.9926 C   0  0  0  0  0  0  0  0  0  0  0  0
   -0.2439   -4.3365   -1.5344 C   0  0  2  0  0  0  0  0  0  0  0  0
   -0.6529   -5.6274   -0.8081 C   0  0  0  0  0  0  0  0  0  0  0  0
   -1.3897   -3.3088   -1.4380 C   0  0  0  0  0  0  0  0  0  0  0  0
   -1.1350   -1.9318   -2.0711 C   0  0  0  0  0  0  0  0  0  0  0  0
    0.1052   -1.2086   -1.5333 C   0  0  0  0  0  0  0  0  0  0  0  0
    0.2552    0.2123   -2.0886 C   0  0  0  0  0  0  0  0  0  0  0  0
    1.4990    0.9635   -1.5835 C   0  0  0  0  0  0  0  0  0  0  0  0
    2.8417    0.2629   -1.8527 C   0  0  0  0  0  0  0  0  0  0  0  0
    3.1032   -0.0518   -3.3299 C   0  0  0  0  0  0  0  0  0  0  0  0
    4.4356   -0.7731   -3.5617 C   0  0  0  0  0  0  0  0  0  0  0  0
    4.7574   -1.0509   -5.0385 C   0  0  0  0  0  0  0  0  0  0  0  0
    3.7055   -1.8633   -5.8185 C   0  0  0  0  0  0  0  0  0  0  0  0
    3.3883   -3.2066   -5.1474 C   0  0  0  0  0  0  0  0  0  0  0  0
    4.1684   -2.0767   -7.2669 C   0  0  0  0  0  0  0  0  0  0  0  0
    1.6541   -5.6496   -4.1998 H   0  0  0  0  0  0  0  0  0  0  0  0
    2.2112   -5.2549   -2.5706 H   0  0  0  0  0  0  0  0  0  0  0  0
    1.0798   -6.5917   -2.8216 H   0  0  0  0  0  0  0  0  0  0  0  0
    0.4496   -3.6539   -3.4662 H   0  0  0  0  0  0  0  0  0  0  0  0
   -0.6992   -4.9768   -3.5485 H   0  0  0  0  0  0  0  0  0  0  0  0
    0.6299   -3.9257   -1.0093 H   0  0  0  0  0  0  0  0  0  0  0  0
   -0.9878   -5.4110    0.2126 H   0  0  0  0  0  0  0  0  0  0  0  0
    0.1735   -6.3408   -0.7383 H   0  0  0  0  0  0  0  0  0  0  0  0
   -1.4807   -6.1233   -1.3307 H   0  0  0  0  0  0  0  0  0  0  0  0
   -1.6291   -3.1640   -0.3756 H   0  0  0  0  0  0  0  0  0  0  0  0
   -2.2894   -3.7464   -1.8934 H   0  0  0  0  0  0  0  0  0  0  0  0
   -1.0509   -2.0256   -3.1611 H   0  0  0  0  0  0  0  0  0  0  0  0
   -2.0194   -1.3050   -1.8949 H   0  0  0  0  0  0  0  0  0  0  0  0
    0.9985   -1.7932   -1.7793 H   0  0  0  0  0  0  0  0  0  0  0  0
    0.0614   -1.1697   -0.4353 H   0  0  0  0  0  0  0  0  0  0  0  0
    0.2682    0.1690   -3.1850 H   0  0  0  0  0  0  0  0  0  0  0  0
   -0.6370    0.7955   -1.8250 H   0  0  0  0  0  0  0  0  0  0  0  0
    1.5174    1.9598   -2.0451 H   0  0  0  0  0  0  0  0  0  0  0  0
    1.4010    1.1294   -0.5023 H   0  0  0  0  0  0  0  0  0  0  0  0
    2.8958   -0.6681   -1.2741 H   0  0  0  0  0  0  0  0  0  0  0  0
    3.6520    0.8979   -1.4709 H   0  0  0  0  0  0  0  0  0  0  0  0
    3.0816    0.8797   -3.9136 H   0  0  0  0  0  0  0  0  0  0  0  0
    2.2871   -0.6704   -3.7182 H   0  0  0  0  0  0  0  0  0  0  0  0
    4.4353   -1.7144   -2.9974 H   0  0  0  0  0  0  0  0  0  0  0  0
    5.2495   -0.1712   -3.1359 H   0  0  0  0  0  0  0  0  0  0  0  0
    4.9067   -0.0931   -5.5557 H   0  0  0  0  0  0  0  0  0  0  0  0
    5.7190   -1.5805   -5.0961 H   0  0  0  0  0  0  0  0  0  0  0  0
    2.7774   -1.2774   -5.8528 H   0  0  0  0  0  0  0  0  0  0  0  0
    2.6671   -3.7795   -5.7407 H   0  0  0  0  0  0  0  0  0  0  0  0
    2.9603   -3.0780   -4.1488 H   0  0  0  0  0  0  0  0  0  0  0  0
    4.2940   -3.8175   -5.0445 H   0  0  0  0  0  0  0  0  0  0  0  0
    3.4077   -2.6026   -7.8549 H   0  0  0  0  0  0  0  0  0  0  0  0
    5.0870   -2.6758   -7.2990 H   0  0  0  0  0  0  0  0  0  0  0  0
    4.3764   -1.1221   -7.7636 H   0  0  0  0  0  0  0  0  0  0  0  0
  1  2  1  0  0  0  0
  1 17  1  0  0  0  0
  1 18  1  0  0  0  0
  1 19  1  0  0  0  0
  2  3  1  0  0  0  0
  2 20  1  0  0  0  0
  2 21  1  0  0  0  0
  3  4  1  0  0  0  0
  3  5  1  0  0  0  0
  3 22  1  0  0  0  0
  4 23  1  0  0  0  0
  4 24  1  0  0  0  0
  4 25  1  0  0  0  0
  5  6  1  0  0  0  0
  5 26  1  0  0  0  0
  5 27  1  0  0  0  0
  6  7  1  0  0  0  0
  6 28  1  0  0  0  0
  6 29  1  0  0  0  0
  7  8  1  0  0  0  0
  7 30  1  0  0  0  0
  7 31  1  0  0  0  0
  8  9  1  0  0  0  0
  8 32  1  0  0  0  0
  8 33  1  0  0  0  0
  9 10  1  0  0  0  0
  9 34  1  0  0  0  0
  9 35  1  0  0  0  0
 10 11  1  0  0  0  0
 10 36  1  0  0  0  0
 10 37  1  0  0  0  0
 11 12  1  0  0  0  0
 11 38  1  0  0  0  0
 11 39  1  0  0  0  0
 12 13  1  0  0  0  0
 12 40  1  0  0  0  0
 12 41  1  0  0  0  0
 13 14  1  0  0  0  0
 13 42  1  0  0  0  0
 13 43  1  0  0  0  0
 14 15  1  0  0  0  0
 14 16  1  0  0  0  0
 14 44  1  0  0  0  0
 15 45  1  0  0  0  0
 15 46  1  0  0  0  0
 15 47  1  0  0  0  0
 16 48  1  0  0  0  0
 16 49  1  0  0  0  0
 16 50  1  0  0  0  0
M  END
$$$$
