
  -OEChem-08192616593D

 29 28  0     0  0  0  0  0  0999 V2000
    0.1531   -1.0172    0.0358 C   0  0  0  0  0  0  0  0  0  0  0  0
   -0.4916   -1.5777    1.3086 C   0  0  0  0  0  0  0  0  0  0  0  0
   -0.1917   -3.0652    1.5294 C   0  0  0  0  0  0  0  0  0  0  0  0
   -0.8320   -3.6358    2.7999 C   0  0  0  0  0  0  0  0  0  0  0  0
   -0.5318   -5.1235    3.0186 C   0  0  0  0  0  0  0  0  0  0  0  0
   -1.1744   -5.6833    4.2935 C   0  0  0  0  0  0  0  0  0  0  0  0
   -1.0000   -7.1982    4.5041 C   0  0  0  0  0  0  0  0  0  0  0  0
   -1.8140   -7.6682    5.7186 C   0  0  0  0  0  0  0  0  0  0  0  0
    0.4743   -7.6009    4.6577 C   0  0  0  0  0  0  0  0  0  0  0  0
   -0.0782    0.0453   -0.0972 H   0  0  0  0  0  0  0  0  0  0  0  0
    1.2441   -1.1196    0.0678 H   0  0  0  0  0  0  0  0  0  0  0  0
   -0.2022   -1.5498   -0.8541 H   0  0  0  0  0  0  0  0  0  0  0  0
   -0.1427   -1.0058    2.1787 H   0  0  0  0  0  0  0  0  0  0  0  0
   -1.5790   -1.4311    1.2638 H   0  0  0  0  0  0  0  0  0  0  0  0
    0.8965   -3.2121    1.5732 H   0  0  0  0  0  0  0  0  0  0  0  0
   -0.5403   -3.6376    0.6584 H   0  0  0  0  0  0  0  0  0  0  0  0
   -0.4821   -3.0639    3.6706 H   0  0  0  0  0  0  0  0  0  0  0  0
   -1.9198   -3.4870    2.7563 H   0  0  0  0  0  0  0  0  0  0  0  0
    0.5555   -5.2647    3.0519 H   0  0  0  0  0  0  0  0  0  0  0  0
   -0.8886   -5.6965    2.1511 H   0  0  0  0  0  0  0  0  0  0  0  0
   -0.7690   -5.1534    5.1679 H   0  0  0  0  0  0  0  0  0  0  0  0
   -2.2490   -5.4557    4.2733 H   0  0  0  0  0  0  0  0  0  0  0  0
   -1.3984   -7.7067    3.6140 H   0  0  0  0  0  0  0  0  0  0  0  0
   -1.7345   -8.7525    5.8565 H   0  0  0  0  0  0  0  0  0  0  0  0
   -1.4540   -7.1894    6.6378 H   0  0  0  0  0  0  0  0  0  0  0  0
   -2.8758   -7.4202    5.6081 H   0  0  0  0  0  0  0  0  0  0  0  0
    0.5698   -8.6774    4.8391 H   0  0  0  0  0  0  0  0  0  0  0  0
    1.0608   -7.3636    3.7649 H   0  0  0  0  0  0  0  0  0  0  0  0
    0.9318   -7.0788    5.5078 H   0  0  0  0  0  0  0  0  0  0  0  0
  1  2  1  0  0  0  0
  1 10  1  0  0  0  0
  1 11  1  0  0  0  0
  1 12  1  0  0  0  0
  2  3  1  0  0  0  0
  2 13  1  0  0  0  0
  2 14  1  0  0  0  0
  3  4  1  0  0  0  0
  3 15  1  0  0  0  0
  3 16  1  0  0  0  0
  4  5  1  0  0  0  0
  4 17  1  0  0  0  0
  4 18  1  0  0  0  0
  5  6  1  0  0  0  0
  5 19  1  0  0  0  0
  5 20  1  0  0  0  0
  6  7  1  0  0  0  0
  6 21  1  0  0  0  0
  6 22  1  0  0  0  0
  7  8  1  0  0  0  0
  7  9  1  0  0  0  0
  7 23  1  0  0  0  0
  8 24  1  0  0  0  0
  8 25  1  0  0  0  0
  8 26  1  0  0  0  0
  9 27  1  0  0  0  0
  9 28  1  0  0  0  0
  9 29  1  0  0  0  0
M  END
$$$$
