
  -OEChem-08192616593D

 29 28  0     1  0  0  0  0  0999 V2000
    4.0294   -1.3887    2.7638 C   0  0  0  0  0  0  0  0  0  0  0  0
    2.8623   -0.4751    2.3729 C   0  0  0  0  0  0  0  0  0  0  0  0
    1.7854   -1.1950    1.5518 C   0  0  0  0  0  0  0  0  0  0  0  0
    0.6137   -0.2823    1.1678 C   0  0  0  0  0  0  0  0  0  0  0  0
   -0.4336   -0.9322    0.2425 C   0  0  1  0  0  0  0  0  0  0  0  0
    0.1157   -1.3604   -0.6092 H   0  0  0  0  0  0  0  0  0  0  0  0
   -1.1662   -2.0878    0.9441 C   0  0  0  0  0  0  0  0  0  0  0  0
   -1.3952    0.1267   -0.3596 C   0  0  0  0  0  0  0  0  0  0  0  0
   -2.3193    0.7842    0.6777 C   0  0  0  0  0  0  0  0  0  0  0  0
   -2.2195   -0.4368   -1.5277 C   0  0  0  0  0  0  0  0  0  0  0  0
    4.7840   -0.8494    3.3468 H   0  0  0  0  0  0  0  0  0  0  0  0
    4.5243   -1.7988    1.8757 H   0  0  0  0  0  0  0  0  0  0  0  0
    3.6829   -2.2350    3.3686 H   0  0  0  0  0  0  0  0  0  0  0  0
    3.2425    0.3809    1.7998 H   0  0  0  0  0  0  0  0  0  0  0  0
    2.4054   -0.0560    3.2793 H   0  0  0  0  0  0  0  0  0  0  0  0
    1.4211   -2.0564    2.1251 H   0  0  0  0  0  0  0  0  0  0  0  0
    2.2408   -1.6051    0.6392 H   0  0  0  0  0  0  0  0  0  0  0  0
    0.1271    0.0748    2.0850 H   0  0  0  0  0  0  0  0  0  0  0  0
    1.0165    0.6102    0.6692 H   0  0  0  0  0  0  0  0  0  0  0  0
   -1.9391   -2.5272    0.3061 H   0  0  0  0  0  0  0  0  0  0  0  0
   -1.6466   -1.7513    1.8697 H   0  0  0  0  0  0  0  0  0  0  0  0
   -0.4725   -2.8912    1.2086 H   0  0  0  0  0  0  0  0  0  0  0  0
   -0.7536    0.9176   -0.7735 H   0  0  0  0  0  0  0  0  0  0  0  0
   -2.9137    1.5781    0.2119 H   0  0  0  0  0  0  0  0  0  0  0  0
   -3.0212    0.0594    1.1045 H   0  0  0  0  0  0  0  0  0  0  0  0
   -1.7579    1.2342    1.5024 H   0  0  0  0  0  0  0  0  0  0  0  0
   -2.7823    0.3609   -2.0256 H   0  0  0  0  0  0  0  0  0  0  0  0
   -2.9462   -1.1837   -1.1898 H   0  0  0  0  0  0  0  0  0  0  0  0
   -1.5761   -0.9110   -2.2779 H   0  0  0  0  0  0  0  0  0  0  0  0
  1  2  1  0  0  0  0
  1 11  1  0  0  0  0
  1 12  1  0  0  0  0
  1 13  1  0  0  0  0
  2  3  1  0  0  0  0
  2 14  1  0  0  0  0
  2 15  1  0  0  0  0
  3  4  1  0  0  0  0
  3 16  1  0  0  0  0
  3 17  1  0  0  0  0
  4  5  1  0  0  0  0
  4 18  1  0  0  0  0
  4 19  1  0  0  0  0
  5  6  1  0  0  0  0
  5  7  1  0  0  0  0
  5  8  1  0  0  0  0
  7 20  1  0  0  0  0
  7 21  1  0  0  0  0
  7 22  1  0  0  0  0
  8  9  1  0  0  0  0
  8 10  1  0  0  0  0
  8 23  1  0  0  0  0
  9 24  1  0  0  0  0
  9 25  1  0  0  0  0
  9 26  1  0  0  0  0
 10 27  1  0  0  0  0
 10 28  1  0  0  0  0
 10 29  1  0  0  0  0
M  END
$$$$
