
  -OEChem-08192616593D

 56 55  0     1  0  0  0  0  0999 V2000
    1.1101    6.7617   -3.6009 C   0  0  0  0  0  0  0  0  0  0  0  0
    0.9624    5.6588   -2.5459 C   0  0  0  0  0  0  0  0  0  0  0  0
    2.0000    4.5413   -2.7155 C   0  0  0  0  0  0  0  0  0  0  0  0
    2.0064    3.4652   -1.6125 C   0  0  2  0  0  0  0  0  0  0  0  0
    3.2135    2.5329   -1.8022 C   0  0  0  0  0  0  0  0  0  0  0  0
    0.6810    2.6826   -1.5686 C   0  0  0  0  0  0  0  0  0  0  0  0
    0.5749    1.6479   -0.4420 C   0  0  0  0  0  0  0  0  0  0  0  0
   -0.7931    0.9570   -0.4066 C   0  0  0  0  0  0  0  0  0  0  0  0
   -0.9680   -0.0945    0.7067 C   0  0  0  0  0  0  0  0  0  0  0  0
   -2.3646   -0.7297    0.6245 C   0  0  0  0  0  0  0  0  0  0  0  0
    0.1479   -1.1613    0.7223 C   0  0  0  0  0  0  0  0  0  0  0  0
    0.3743   -1.9023   -0.6018 C   0  0  0  0  0  0  0  0  0  0  0  0
    1.5726   -2.8553   -0.5420 C   0  0  0  0  0  0  0  0  0  0  0  0
    1.8723   -3.6027   -1.8549 C   0  0  2  0  0  0  0  0  0  0  0  0
    3.0606   -4.5585   -1.6655 C   0  0  0  0  0  0  0  0  0  0  0  0
    2.0797   -2.6644   -3.0642 C   0  0  0  0  0  0  0  0  0  0  0  0
    3.1642   -1.5894   -2.9053 C   0  0  0  0  0  0  0  0  0  0  0  0
    3.3275   -0.7386   -4.1699 C   0  0  0  0  0  0  0  0  0  0  0  0
    0.3594    7.5482   -3.4669 H   0  0  0  0  0  0  0  0  0  0  0  0
    0.9920    6.3570   -4.6129 H   0  0  0  0  0  0  0  0  0  0  0  0
    2.0994    7.2310   -3.5470 H   0  0  0  0  0  0  0  0  0  0  0  0
    1.0631    6.0952   -1.5429 H   0  0  0  0  0  0  0  0  0  0  0  0
   -0.0514    5.2464   -2.6007 H   0  0  0  0  0  0  0  0  0  0  0  0
    2.9973    5.0003   -2.7566 H   0  0  0  0  0  0  0  0  0  0  0  0
    1.8528    4.0538   -3.6904 H   0  0  0  0  0  0  0  0  0  0  0  0
    2.1249    3.9799   -0.6469 H   0  0  0  0  0  0  0  0  0  0  0  0
    3.3267    1.8292   -0.9723 H   0  0  0  0  0  0  0  0  0  0  0  0
    4.1439    3.1071   -1.8753 H   0  0  0  0  0  0  0  0  0  0  0  0
    3.1107    1.9472   -2.7236 H   0  0  0  0  0  0  0  0  0  0  0  0
   -0.1527    3.3873   -1.4689 H   0  0  0  0  0  0  0  0  0  0  0  0
    0.5388    2.1771   -2.5356 H   0  0  0  0  0  0  0  0  0  0  0  0
    0.7648    2.1367    0.5242 H   0  0  0  0  0  0  0  0  0  0  0  0
    1.3598    0.8954   -0.5627 H   0  0  0  0  0  0  0  0  0  0  0  0
   -0.9834    0.4891   -1.3816 H   0  0  0  0  0  0  0  0  0  0  0  0
   -1.5753    1.7190   -0.2878 H   0  0  0  0  0  0  0  0  0  0  0  0
   -0.9054    0.4351    1.6685 H   0  0  0  0  0  0  0  0  0  0  0  0
   -2.5230   -1.4480    1.4370 H   0  0  0  0  0  0  0  0  0  0  0  0
   -2.5080   -1.2611   -0.3231 H   0  0  0  0  0  0  0  0  0  0  0  0
   -3.1487    0.0328    0.6940 H   0  0  0  0  0  0  0  0  0  0  0  0
    1.0911   -0.6863    1.0194 H   0  0  0  0  0  0  0  0  0  0  0  0
   -0.0770   -1.8914    1.5115 H   0  0  0  0  0  0  0  0  0  0  0  0
   -0.5251   -2.4655   -0.8822 H   0  0  0  0  0  0  0  0  0  0  0  0
    0.5357   -1.1715   -1.4001 H   0  0  0  0  0  0  0  0  0  0  0  0
    1.4027   -3.5971    0.2502 H   0  0  0  0  0  0  0  0  0  0  0  0
    2.4640   -2.2923   -0.2344 H   0  0  0  0  0  0  0  0  0  0  0  0
    0.9920   -4.2191   -2.0886 H   0  0  0  0  0  0  0  0  0  0  0  0
    3.2685   -5.1217   -2.5825 H   0  0  0  0  0  0  0  0  0  0  0  0
    2.8589   -5.2814   -0.8670 H   0  0  0  0  0  0  0  0  0  0  0  0
    3.9731   -4.0168   -1.3927 H   0  0  0  0  0  0  0  0  0  0  0  0
    1.1308   -2.1696   -3.3062 H   0  0  0  0  0  0  0  0  0  0  0  0
    2.3218   -3.2821   -3.9400 H   0  0  0  0  0  0  0  0  0  0  0  0
    2.9192   -0.9317   -2.0630 H   0  0  0  0  0  0  0  0  0  0  0  0
    4.1243   -2.0583   -2.6585 H   0  0  0  0  0  0  0  0  0  0  0  0
    4.1077    0.0197   -4.0447 H   0  0  0  0  0  0  0  0  0  0  0  0
    2.3942   -0.2188   -4.4177 H   0  0  0  0  0  0  0  0  0  0  0  0
    3.5986   -1.3591   -5.0321 H   0  0  0  0  0  0  0  0  0  0  0  0
  1  2  1  0  0  0  0
  1 19  1  0  0  0  0
  1 20  1  0  0  0  0
  1 21  1  0  0  0  0
  2  3  1  0  0  0  0
  2 22  1  0  0  0  0
  2 23  1  0  0  0  0
  3  4  1  0  0  0  0
  3 24  1  0  0  0  0
  3 25  1  0  0  0  0
  4  5  1  0  0  0  0
  4  6  1  0  0  0  0
  4 26  1  0  0  0  0
  5 27  1  0  0  0  0
  5 28  1  0  0  0  0
  5 29  1  0  0  0  0
  6  7  1  0  0  0  0
  6 30  1  0  0  0  0
  6 31  1  0  0  0  0
  7  8  1  0  0  0  0
  7 32  1  0  0  0  0
  7 33  1  0  0  0  0
  8  9  1  0  0  0  0
  8 34  1  0  0  0  0
  8 35  1  0  0  0  0
  9 10  1  0  0  0  0
  9 11  1  0  0  0  0
  9 36  1  0  0  0  0
 10 37  1  0  0  0  0
 10 38  1  0  0  0  0
 10 39  1  0  0  0  0
 11 12  1  0  0  0  0
 11 40  1  0  0  0  0
 11 41  1  0  0  0  0
 12 13  1  0  0  0  0
 12 42  1  0  0  0  0
 12 43  1  0  0  0  0
 13 14  1  0  0  0  0
 13 44  1  0  0  0  0
 13 45  1  0  0  0  0
 14 15  1  0  0  0  0
 14 16  1  0  0  0  0
 14 46  1  0  0  0  0
 15 47  1  0  0  0  0
 15 48  1  0  0  0  0
 15 49  1  0  0  0  0
 16 17  1  0  0  0  0
 16 50  1  0  0  0  0
 16 51  1  0  0  0  0
 17 18  1  0  0  0  0
 17 52  1  0  0  0  0
 17 53  1  0  0  0  0
 18 54  1  0  0  0  0
 18 55  1  0  0  0  0
 18 56  1  0  0  0  0
M  END
$$$$
