
  -OEChem-08192616593D

 56 55  0     1  0  0  0  0  0999 V2000
    4.2993    0.5274   -3.2904 C   0  0  0  0  0  0  0  0  0  0  0  0
    2.9942    1.3189   -3.1508 C   0  0  0  0  0  0  0  0  0  0  0  0
    3.0952    2.4397   -2.1088 C   0  0  0  0  0  0  0  0  0  0  0  0
    1.8696    3.3692   -2.0194 C   0  0  2  0  0  0  0  0  0  0  0  0
    2.0971    4.4508   -0.9519 C   0  0  0  0  0  0  0  0  0  0  0  0
    0.5395    2.6178   -1.8021 C   0  0  0  0  0  0  0  0  0  0  0  0
    0.4799    1.7164   -0.5625 C   0  0  0  0  0  0  0  0  0  0  0  0
   -0.8456    0.9537   -0.4610 C   0  0  0  0  0  0  0  0  0  0  0  0
   -0.9621    0.0077    0.7489 C   0  0  0  0  0  0  0  0  0  0  0  0
   -2.3347   -0.6832    0.7555 C   0  0  0  0  0  0  0  0  0  0  0  0
    0.1931   -1.0129    0.8410 C   0  0  0  0  0  0  0  0  0  0  0  0
    0.4270   -1.8657   -0.4130 C   0  0  0  0  0  0  0  0  0  0  0  0
    1.5709   -2.8702   -0.2236 C   0  0  0  0  0  0  0  0  0  0  0  0
    1.9486   -3.6939   -1.4732 C   0  0  2  0  0  0  0  0  0  0  0  0
    2.6009   -2.8191   -2.5553 C   0  0  0  0  0  0  0  0  0  0  0  0
    0.7718   -4.4928   -2.0636 C   0  0  0  0  0  0  0  0  0  0  0  0
    0.0872   -5.4574   -1.0880 C   0  0  0  0  0  0  0  0  0  0  0  0
   -0.9994   -6.3043   -1.7607 C   0  0  0  0  0  0  0  0  0  0  0  0
    4.1998   -0.2858   -4.0169 H   0  0  0  0  0  0  0  0  0  0  0  0
    4.5921    0.0819   -2.3325 H   0  0  0  0  0  0  0  0  0  0  0  0
    5.1211    1.1745   -3.6185 H   0  0  0  0  0  0  0  0  0  0  0  0
    2.7189    1.7486   -4.1234 H   0  0  0  0  0  0  0  0  0  0  0  0
    2.1855    0.6294   -2.8815 H   0  0  0  0  0  0  0  0  0  0  0  0
    3.9751    3.0561   -2.3388 H   0  0  0  0  0  0  0  0  0  0  0  0
    3.2944    1.9973   -1.1234 H   0  0  0  0  0  0  0  0  0  0  0  0
    1.7809    3.8807   -2.9891 H   0  0  0  0  0  0  0  0  0  0  0  0
    1.2469    5.1405   -0.8975 H   0  0  0  0  0  0  0  0  0  0  0  0
    2.9933    5.0408   -1.1748 H   0  0  0  0  0  0  0  0  0  0  0  0
    2.2341    4.0111    0.0423 H   0  0  0  0  0  0  0  0  0  0  0  0
   -0.2723    3.3560   -1.7495 H   0  0  0  0  0  0  0  0  0  0  0  0
    0.3267    2.0056   -2.6873 H   0  0  0  0  0  0  0  0  0  0  0  0
    0.6263    2.3108    0.3485 H   0  0  0  0  0  0  0  0  0  0  0  0
    1.3089    1.0023   -0.5963 H   0  0  0  0  0  0  0  0  0  0  0  0
   -1.0020    0.3807   -1.3848 H   0  0  0  0  0  0  0  0  0  0  0  0
   -1.6715    1.6766   -0.4180 H   0  0  0  0  0  0  0  0  0  0  0  0
   -0.9040    0.6269    1.6560 H   0  0  0  0  0  0  0  0  0  0  0  0
   -2.4495   -1.3312    1.6319 H   0  0  0  0  0  0  0  0  0  0  0  0
   -2.4775   -1.3019   -0.1376 H   0  0  0  0  0  0  0  0  0  0  0  0
   -3.1455    0.0537    0.7753 H   0  0  0  0  0  0  0  0  0  0  0  0
    1.1234   -0.4843    1.0832 H   0  0  0  0  0  0  0  0  0  0  0  0
    0.0002   -1.6781    1.6938 H   0  0  0  0  0  0  0  0  0  0  0  0
   -0.4935   -2.3999   -0.6739 H   0  0  0  0  0  0  0  0  0  0  0  0
    0.6519   -1.2120   -1.2626 H   0  0  0  0  0  0  0  0  0  0  0  0
    1.3117   -3.5513    0.5964 H   0  0  0  0  0  0  0  0  0  0  0  0
    2.4657   -2.3282    0.1120 H   0  0  0  0  0  0  0  0  0  0  0  0
    2.7041   -4.4238   -1.1471 H   0  0  0  0  0  0  0  0  0  0  0  0
    2.9605   -3.4307   -3.3905 H   0  0  0  0  0  0  0  0  0  0  0  0
    3.4559   -2.2633   -2.1555 H   0  0  0  0  0  0  0  0  0  0  0  0
    1.8949   -2.0892   -2.9664 H   0  0  0  0  0  0  0  0  0  0  0  0
    1.1432   -5.0671   -2.9235 H   0  0  0  0  0  0  0  0  0  0  0  0
    0.0243   -3.7990   -2.4713 H   0  0  0  0  0  0  0  0  0  0  0  0
    0.8428   -6.1170   -0.6403 H   0  0  0  0  0  0  0  0  0  0  0  0
   -0.3581   -4.8961   -0.2580 H   0  0  0  0  0  0  0  0  0  0  0  0
   -1.4805   -6.9816   -1.0466 H   0  0  0  0  0  0  0  0  0  0  0  0
   -0.5815   -6.9139   -2.5703 H   0  0  0  0  0  0  0  0  0  0  0  0
   -1.7801   -5.6691   -2.1956 H   0  0  0  0  0  0  0  0  0  0  0  0
  1  2  1  0  0  0  0
  1 19  1  0  0  0  0
  1 20  1  0  0  0  0
  1 21  1  0  0  0  0
  2  3  1  0  0  0  0
  2 22  1  0  0  0  0
  2 23  1  0  0  0  0
  3  4  1  0  0  0  0
  3 24  1  0  0  0  0
  3 25  1  0  0  0  0
  4  5  1  0  0  0  0
  4  6  1  0  0  0  0
  4 26  1  0  0  0  0
  5 27  1  0  0  0  0
  5 28  1  0  0  0  0
  5 29  1  0  0  0  0
  6  7  1  0  0  0  0
  6 30  1  0  0  0  0
  6 31  1  0  0  0  0
  7  8  1  0  0  0  0
  7 32  1  0  0  0  0
  7 33  1  0  0  0  0
  8  9  1  0  0  0  0
  8 34  1  0  0  0  0
  8 35  1  0  0  0  0
  9 10  1  0  0  0  0
  9 11  1  0  0  0  0
  9 36  1  0  0  0  0
 10 37  1  0  0  0  0
 10 38  1  0  0  0  0
 10 39  1  0  0  0  0
 11 12  1  0  0  0  0
 11 40  1  0  0  0  0
 11 41  1  0  0  0  0
 12 13  1  0  0  0  0
 12 42  1  0  0  0  0
 12 43  1  0  0  0  0
 13 14  1  0  0  0  0
 13 44  1  0  0  0  0
 13 45  1  0  0  0  0
 14 15  1  0  0  0  0
 14 16  1  0  0  0  0
 14 46  1  0  0  0  0
 15 47  1  0  0  0  0
 15 48  1  0  0  0  0
 15 49  1  0  0  0  0
 16 17  1  0  0  0  0
 16 50  1  0  0  0  0
 16 51  1  0  0  0  0
 17 18  1  0  0  0  0
 17 52  1  0  0  0  0
 17 53  1  0  0  0  0
 18 54  1  0  0  0  0
 18 55  1  0  0  0  0
 18 56  1  0  0  0  0
M  END
$$$$
