
  -OEChem-08192616593D

 23 22  0     0  0  0  0  0  0999 V2000
    1.4061   -1.1253   -2.7807 C   0  0  0  0  0  0  0  0  0  0  0  0
    1.4595   -0.3602   -1.4518 C   0  0  0  0  0  0  0  0  0  0  0  0
    2.6628   -0.7201   -0.5668 C   0  0  0  0  0  0  0  0  0  0  0  0
    2.6781   -2.1731   -0.0745 C   0  0  0  0  0  0  0  0  0  0  0  0
    3.8383   -2.4628    0.8868 C   0  0  0  0  0  0  0  0  0  0  0  0
    3.9505   -3.9310    1.3254 C   0  0  0  0  0  0  0  0  0  0  0  0
    2.7540   -4.4358    2.1426 C   0  0  0  0  0  0  0  0  0  0  0  0
    0.5721   -0.7800   -3.4015 H   0  0  0  0  0  0  0  0  0  0  0  0
    1.2768   -2.2013   -2.6261 H   0  0  0  0  0  0  0  0  0  0  0  0
    2.3301   -0.9810   -3.3537 H   0  0  0  0  0  0  0  0  0  0  0  0
    0.5325   -0.5389   -0.8905 H   0  0  0  0  0  0  0  0  0  0  0  0
    1.4863    0.7166   -1.6614 H   0  0  0  0  0  0  0  0  0  0  0  0
    3.5914   -0.5149   -1.1180 H   0  0  0  0  0  0  0  0  0  0  0  0
    2.6728   -0.0523    0.3052 H   0  0  0  0  0  0  0  0  0  0  0  0
    1.7210   -2.3909    0.4168 H   0  0  0  0  0  0  0  0  0  0  0  0
    2.7471   -2.8579   -0.9295 H   0  0  0  0  0  0  0  0  0  0  0  0
    3.7382   -1.8261    1.7772 H   0  0  0  0  0  0  0  0  0  0  0  0
    4.7788   -2.1649    0.4042 H   0  0  0  0  0  0  0  0  0  0  0  0
    4.0786   -4.5641    0.4370 H   0  0  0  0  0  0  0  0  0  0  0  0
    4.8647   -4.0518    1.9203 H   0  0  0  0  0  0  0  0  0  0  0  0
    2.9174   -5.4622    2.4887 H   0  0  0  0  0  0  0  0  0  0  0  0
    2.5904   -3.8080    3.0270 H   0  0  0  0  0  0  0  0  0  0  0  0
    1.8293   -4.4301    1.5567 H   0  0  0  0  0  0  0  0  0  0  0  0
  1  2  1  0  0  0  0
  1  8  1  0  0  0  0
  1  9  1  0  0  0  0
  1 10  1  0  0  0  0
  2  3  1  0  0  0  0
  2 11  1  0  0  0  0
  2 12  1  0  0  0  0
  3  4  1  0  0  0  0
  3 13  1  0  0  0  0
  3 14  1  0  0  0  0
  4  5  1  0  0  0  0
  4 15  1  0  0  0  0
  4 16  1  0  0  0  0
  5  6  1  0  0  0  0
  5 17  1  0  0  0  0
  5 18  1  0  0  0  0
  6  7  1  0  0  0  0
  6 19  1  0  0  0  0
  6 20  1  0  0  0  0
  7 21  1  0  0  0  0
  7 22  1  0  0  0  0
  7 23  1  0  0  0  0
M  END
$$$$
