
  -OEChem-08192616593D

 56 55  0     1  0  0  0  0  0999 V2000
    4.4352    0.7537   -3.3724 C   0  0  0  0  0  0  0  0  0  0  0  0
    3.1044    1.4915   -3.1863 C   0  0  0  0  0  0  0  0  0  0  0  0
    3.1701    2.5495   -2.0781 C   0  0  0  0  0  0  0  0  0  0  0  0
    1.9252    3.4480   -1.9516 C   0  0  2  0  0  0  0  0  0  0  0  0
    2.1200    4.4753   -0.8255 C   0  0  0  0  0  0  0  0  0  0  0  0
    0.6075    2.6615   -1.7901 C   0  0  0  0  0  0  0  0  0  0  0  0
    0.5487    1.6939   -0.6012 C   0  0  0  0  0  0  0  0  0  0  0  0
   -0.7884    0.9485   -0.5257 C   0  0  0  0  0  0  0  0  0  0  0  0
   -0.9203   -0.0354    0.6517 C   0  0  0  0  0  0  0  0  0  0  0  0
   -2.3137   -0.6835    0.6527 C   0  0  0  0  0  0  0  0  0  0  0  0
    0.2045   -1.0921    0.6962 C   0  0  0  0  0  0  0  0  0  0  0  0
    0.3852   -1.9267   -0.5787 C   0  0  0  0  0  0  0  0  0  0  0  0
    1.4991   -2.9718   -0.4366 C   0  0  0  0  0  0  0  0  0  0  0  0
    1.8665   -3.7040   -1.7390 C   0  0  2  0  0  0  0  0  0  0  0  0
    0.6696   -4.4657   -2.3288 C   0  0  0  0  0  0  0  0  0  0  0  0
    3.0499   -4.6724   -1.5424 C   0  0  0  0  0  0  0  0  0  0  0  0
    4.3540   -4.0590   -1.0062 C   0  0  0  0  0  0  0  0  0  0  0  0
    4.8972   -2.9055   -1.8581 C   0  0  0  0  0  0  0  0  0  0  0  0
    4.3611   -0.0244   -4.1399 H   0  0  0  0  0  0  0  0  0  0  0  0
    4.7519    0.2708   -2.4412 H   0  0  0  0  0  0  0  0  0  0  0  0
    5.2311    1.4454   -3.6718 H   0  0  0  0  0  0  0  0  0  0  0  0
    2.8147    1.9704   -4.1314 H   0  0  0  0  0  0  0  0  0  0  0  0
    2.3168    0.7624   -2.9603 H   0  0  0  0  0  0  0  0  0  0  0  0
    4.0401    3.1955   -2.2593 H   0  0  0  0  0  0  0  0  0  0  0  0
    3.3658    2.0531   -1.1180 H   0  0  0  0  0  0  0  0  0  0  0  0
    1.8361    4.0094   -2.8932 H   0  0  0  0  0  0  0  0  0  0  0  0
    1.2552    5.1437   -0.7434 H   0  0  0  0  0  0  0  0  0  0  0  0
    3.0057    5.0945   -1.0077 H   0  0  0  0  0  0  0  0  0  0  0  0
    2.2571    3.9864    0.1454 H   0  0  0  0  0  0  0  0  0  0  0  0
   -0.2170    3.3824   -1.7059 H   0  0  0  0  0  0  0  0  0  0  0  0
    0.4133    2.0950   -2.7095 H   0  0  0  0  0  0  0  0  0  0  0  0
    0.7128    2.2357    0.3390 H   0  0  0  0  0  0  0  0  0  0  0  0
    1.3669    0.9704   -0.6828 H   0  0  0  0  0  0  0  0  0  0  0  0
   -0.9558    0.4116   -1.4689 H   0  0  0  0  0  0  0  0  0  0  0  0
   -1.6015    1.6837   -0.4553 H   0  0  0  0  0  0  0  0  0  0  0  0
   -0.8330    0.5507    1.5783 H   0  0  0  0  0  0  0  0  0  0  0  0
   -2.4346   -1.3651    1.5024 H   0  0  0  0  0  0  0  0  0  0  0  0
   -2.4912   -1.2579   -0.2634 H   0  0  0  0  0  0  0  0  0  0  0  0
   -3.0999    0.0769    0.7187 H   0  0  0  0  0  0  0  0  0  0  0  0
    1.1555   -0.5968    0.9285 H   0  0  0  0  0  0  0  0  0  0  0  0
    0.0097   -1.7688    1.5394 H   0  0  0  0  0  0  0  0  0  0  0  0
   -0.5590   -2.4183   -0.8356 H   0  0  0  0  0  0  0  0  0  0  0  0
    0.6280   -1.2679   -1.4225 H   0  0  0  0  0  0  0  0  0  0  0  0
    1.2129   -3.7129    0.3241 H   0  0  0  0  0  0  0  0  0  0  0  0
    2.3906   -2.4665   -0.0457 H   0  0  0  0  0  0  0  0  0  0  0  0
    2.1672   -2.9433   -2.4733 H   0  0  0  0  0  0  0  0  0  0  0  0
    0.9614   -5.0131   -3.2323 H   0  0  0  0  0  0  0  0  0  0  0  0
   -0.1508   -3.7950   -2.6008 H   0  0  0  0  0  0  0  0  0  0  0  0
    0.2799   -5.1967   -1.6090 H   0  0  0  0  0  0  0  0  0  0  0  0
    3.2627   -5.1519   -2.5079 H   0  0  0  0  0  0  0  0  0  0  0  0
    2.7339   -5.4796   -0.8665 H   0  0  0  0  0  0  0  0  0  0  0  0
    4.2133   -3.7154    0.0253 H   0  0  0  0  0  0  0  0  0  0  0  0
    5.1085   -4.8540   -0.9546 H   0  0  0  0  0  0  0  0  0  0  0  0
    5.8690   -2.5624   -1.4868 H   0  0  0  0  0  0  0  0  0  0  0  0
    4.2216   -2.0446   -1.8528 H   0  0  0  0  0  0  0  0  0  0  0  0
    5.0286   -3.2123   -2.9027 H   0  0  0  0  0  0  0  0  0  0  0  0
  1  2  1  0  0  0  0
  1 19  1  0  0  0  0
  1 20  1  0  0  0  0
  1 21  1  0  0  0  0
  2  3  1  0  0  0  0
  2 22  1  0  0  0  0
  2 23  1  0  0  0  0
  3  4  1  0  0  0  0
  3 24  1  0  0  0  0
  3 25  1  0  0  0  0
  4  5  1  0  0  0  0
  4  6  1  0  0  0  0
  4 26  1  0  0  0  0
  5 27  1  0  0  0  0
  5 28  1  0  0  0  0
  5 29  1  0  0  0  0
  6  7  1  0  0  0  0
  6 30  1  0  0  0  0
  6 31  1  0  0  0  0
  7  8  1  0  0  0  0
  7 32  1  0  0  0  0
  7 33  1  0  0  0  0
  8  9  1  0  0  0  0
  8 34  1  0  0  0  0
  8 35  1  0  0  0  0
  9 10  1  0  0  0  0
  9 11  1  0  0  0  0
  9 36  1  0  0  0  0
 10 37  1  0  0  0  0
 10 38  1  0  0  0  0
 10 39  1  0  0  0  0
 11 12  1  0  0  0  0
 11 40  1  0  0  0  0
 11 41  1  0  0  0  0
 12 13  1  0  0  0  0
 12 42  1  0  0  0  0
 12 43  1  0  0  0  0
 13 14  1  0  0  0  0
 13 44  1  0  0  0  0
 13 45  1  0  0  0  0
 14 15  1  0  0  0  0
 14 16  1  0  0  0  0
 14 46  1  0  0  0  0
 15 47  1  0  0  0  0
 15 48  1  0  0  0  0
 15 49  1  0  0  0  0
 16 17  1  0  0  0  0
 16 50  1  0  0  0  0
 16 51  1  0  0  0  0
 17 18  1  0  0  0  0
 17 52  1  0  0  0  0
 17 53  1  0  0  0  0
 18 54  1  0  0  0  0
 18 55  1  0  0  0  0
 18 56  1  0  0  0  0
M  END
$$$$
