
  -OEChem-08192616593D

 50 49  0     1  0  0  0  0  0999 V2000
    1.2506   -5.6063   -3.1374 C   0  0  0  0  0  0  0  0  0  0  0  0
    0.0713   -4.6397   -2.9695 C   0  0  0  0  0  0  0  0  0  0  0  0
   -0.2948   -4.3224   -1.5082 C   0  0  2  0  0  0  0  0  0  0  0  0
   -0.6780   -5.5867   -0.7239 C   0  0  0  0  0  0  0  0  0  0  0  0
   -1.4370   -3.2909   -1.4122 C   0  0  0  0  0  0  0  0  0  0  0  0
   -1.1989   -1.9340   -2.0939 C   0  0  0  0  0  0  0  0  0  0  0  0
    0.0376   -1.1787   -1.5914 C   0  0  0  0  0  0  0  0  0  0  0  0
    0.1703    0.2250   -2.1929 C   0  0  0  0  0  0  0  0  0  0  0  0
    1.4121    0.9818   -1.7083 C   0  0  0  0  0  0  0  0  0  0  0  0
    1.5399    2.3888   -2.3029 C   0  0  0  0  0  0  0  0  0  0  0  0
    2.7831    3.1445   -1.8201 C   0  0  0  0  0  0  0  0  0  0  0  0
    2.8944    4.5573   -2.4063 C   0  0  0  0  0  0  0  0  0  0  0  0
    4.1870    5.3006   -2.0355 C   0  0  0  0  0  0  0  0  0  0  0  0
    4.4434    5.5100   -0.5308 C   0  0  0  0  0  0  0  0  0  0  0  0
    3.2988    6.2704    0.1542 C   0  0  0  0  0  0  0  0  0  0  0  0
    5.7791    6.2373   -0.3184 C   0  0  0  0  0  0  0  0  0  0  0  0
    1.5242   -5.7087   -4.1932 H   0  0  0  0  0  0  0  0  0  0  0  0
    2.1349   -5.2440   -2.5992 H   0  0  0  0  0  0  0  0  0  0  0  0
    1.0198   -6.6074   -2.7607 H   0  0  0  0  0  0  0  0  0  0  0  0
    0.3148   -3.7056   -3.4881 H   0  0  0  0  0  0  0  0  0  0  0  0
   -0.8142   -5.0480   -3.4772 H   0  0  0  0  0  0  0  0  0  0  0  0
    0.5958   -3.8931   -1.0280 H   0  0  0  0  0  0  0  0  0  0  0  0
   -0.9701   -5.3359    0.3021 H   0  0  0  0  0  0  0  0  0  0  0  0
    0.1482   -6.3014   -0.6647 H   0  0  0  0  0  0  0  0  0  0  0  0
   -1.5282   -6.0955   -1.1959 H   0  0  0  0  0  0  0  0  0  0  0  0
   -1.6489   -3.1133   -0.3490 H   0  0  0  0  0  0  0  0  0  0  0  0
   -2.3484   -3.7412   -1.8306 H   0  0  0  0  0  0  0  0  0  0  0  0
   -1.1278   -2.0623   -3.1810 H   0  0  0  0  0  0  0  0  0  0  0  0
   -2.0864   -1.3090   -1.9274 H   0  0  0  0  0  0  0  0  0  0  0  0
    0.9448   -1.7519   -1.8216 H   0  0  0  0  0  0  0  0  0  0  0  0
   -0.0037   -1.1031   -0.4956 H   0  0  0  0  0  0  0  0  0  0  0  0
    0.1969    0.1484   -3.2889 H   0  0  0  0  0  0  0  0  0  0  0  0
   -0.7282    0.8096   -1.9516 H   0  0  0  0  0  0  0  0  0  0  0  0
    1.3888    1.0523   -0.6119 H   0  0  0  0  0  0  0  0  0  0  0  0
    2.3111    0.4003   -1.9558 H   0  0  0  0  0  0  0  0  0  0  0  0
    0.6423    2.9711   -2.0523 H   0  0  0  0  0  0  0  0  0  0  0  0
    1.5599    2.3194   -3.3994 H   0  0  0  0  0  0  0  0  0  0  0  0
    3.6832    2.5709   -2.0826 H   0  0  0  0  0  0  0  0  0  0  0  0
    2.7649    3.1952   -0.7240 H   0  0  0  0  0  0  0  0  0  0  0  0
    2.0212    5.1465   -2.0993 H   0  0  0  0  0  0  0  0  0  0  0  0
    2.8382    4.4912   -3.5011 H   0  0  0  0  0  0  0  0  0  0  0  0
    5.0411    4.7549   -2.4597 H   0  0  0  0  0  0  0  0  0  0  0  0
    4.1815    6.2845   -2.5259 H   0  0  0  0  0  0  0  0  0  0  0  0
    4.5256    4.5236   -0.0556 H   0  0  0  0  0  0  0  0  0  0  0  0
    3.5223    6.4442    1.2128 H   0  0  0  0  0  0  0  0  0  0  0  0
    2.3528    5.7222    0.1026 H   0  0  0  0  0  0  0  0  0  0  0  0
    3.1436    7.2487   -0.3182 H   0  0  0  0  0  0  0  0  0  0  0  0
    6.0062    6.3506    0.7477 H   0  0  0  0  0  0  0  0  0  0  0  0
    5.7522    7.2407   -0.7614 H   0  0  0  0  0  0  0  0  0  0  0  0
    6.6084    5.6912   -0.7824 H   0  0  0  0  0  0  0  0  0  0  0  0
  1  2  1  0  0  0  0
  1 17  1  0  0  0  0
  1 18  1  0  0  0  0
  1 19  1  0  0  0  0
  2  3  1  0  0  0  0
  2 20  1  0  0  0  0
  2 21  1  0  0  0  0
  3  4  1  0  0  0  0
  3  5  1  0  0  0  0
  3 22  1  0  0  0  0
  4 23  1  0  0  0  0
  4 24  1  0  0  0  0
  4 25  1  0  0  0  0
  5  6  1  0  0  0  0
  5 26  1  0  0  0  0
  5 27  1  0  0  0  0
  6  7  1  0  0  0  0
  6 28  1  0  0  0  0
  6 29  1  0  0  0  0
  7  8  1  0  0  0  0
  7 30  1  0  0  0  0
  7 31  1  0  0  0  0
  8  9  1  0  0  0  0
  8 32  1  0  0  0  0
  8 33  1  0  0  0  0
  9 10  1  0  0  0  0
  9 34  1  0  0  0  0
  9 35  1  0  0  0  0
 10 11  1  0  0  0  0
 10 36  1  0  0  0  0
 10 37  1  0  0  0  0
 11 12  1  0  0  0  0
 11 38  1  0  0  0  0
 11 39  1  0  0  0  0
 12 13  1  0  0  0  0
 12 40  1  0  0  0  0
 12 41  1  0  0  0  0
 13 14  1  0  0  0  0
 13 42  1  0  0  0  0
 13 43  1  0  0  0  0
 14 15  1  0  0  0  0
 14 16  1  0  0  0  0
 14 44  1  0  0  0  0
 15 45  1  0  0  0  0
 15 46  1  0  0  0  0
 15 47  1  0  0  0  0
 16 48  1  0  0  0  0
 16 49  1  0  0  0  0
 16 50  1  0  0  0  0
M  END
$$$$
