
  -OEChem-08192616593D

 26 25  0     0  0  0  0  0  0999 V2000
    1.0264    3.2584   -6.1323 H   0  0  0  0  0  0  0  0  0  0  0  0
    0.9571    4.3108   -5.8358 C   0  0  0  0  0  0  0  0  0  0  0  0
    1.9148    4.5948   -5.3844 H   0  0  0  0  0  0  0  0  0  0  0  0
    0.8302    4.9001   -6.7509 H   0  0  0  0  0  0  0  0  0  0  0  0
   -0.2101    4.5483   -4.8652 C   0  0  0  0  0  0  0  0  0  0  0  0
   -0.2584    5.6294   -4.6735 H   0  0  0  0  0  0  0  0  0  0  0  0
    0.0174    3.8786   -3.4940 C   0  0  0  0  0  0  0  0  0  0  0  0
    0.1164    2.3471   -3.4985 C   0  0  0  0  0  0  0  0  0  0  0  0
    0.3500    1.7737   -2.0945 C   0  0  0  0  0  0  0  0  0  0  0  0
    0.3760    0.2388   -2.0304 C   0  0  0  0  0  0  0  0  0  0  0  0
    1.5364   -0.4030   -2.8023 C   0  0  0  0  0  0  0  0  0  0  0  0
   -1.5466    4.1390   -5.5029 C   0  0  0  0  0  0  0  0  0  0  0  0
   -2.3831    4.2997   -4.8129 H   0  0  0  0  0  0  0  0  0  0  0  0
   -1.5483    3.0817   -5.7897 H   0  0  0  0  0  0  0  0  0  0  0  0
   -1.7425    4.7236   -6.4089 H   0  0  0  0  0  0  0  0  0  0  0  0
   -0.7986    4.1766   -2.8212 H   0  0  0  0  0  0  0  0  0  0  0  0
    0.9372    4.2887   -3.0544 H   0  0  0  0  0  0  0  0  0  0  0  0
   -0.8044    1.9129   -3.9090 H   0  0  0  0  0  0  0  0  0  0  0  0
    0.9288    2.0331   -4.1631 H   0  0  0  0  0  0  0  0  0  0  0  0
    1.2953    2.1679   -1.6953 H   0  0  0  0  0  0  0  0  0  0  0  0
   -0.4397    2.1427   -1.4263 H   0  0  0  0  0  0  0  0  0  0  0  0
    0.4350   -0.0684   -0.9786 H   0  0  0  0  0  0  0  0  0  0  0  0
   -0.5767   -0.1546   -2.4100 H   0  0  0  0  0  0  0  0  0  0  0  0
    1.5491   -1.4897   -2.6640 H   0  0  0  0  0  0  0  0  0  0  0  0
    1.4668   -0.2098   -3.8776 H   0  0  0  0  0  0  0  0  0  0  0  0
    2.5009   -0.0118   -2.4567 H   0  0  0  0  0  0  0  0  0  0  0  0
  1  2  1  0  0  0  0
  2  3  1  0  0  0  0
  2  4  1  0  0  0  0
  2  5  1  0  0  0  0
  5  6  1  0  0  0  0
  5  7  1  0  0  0  0
  5 12  1  0  0  0  0
  7  8  1  0  0  0  0
  7 16  1  0  0  0  0
  7 17  1  0  0  0  0
  8  9  1  0  0  0  0
  8 18  1  0  0  0  0
  8 19  1  0  0  0  0
  9 10  1  0  0  0  0
  9 20  1  0  0  0  0
  9 21  1  0  0  0  0
 10 11  1  0  0  0  0
 10 22  1  0  0  0  0
 10 23  1  0  0  0  0
 11 24  1  0  0  0  0
 11 25  1  0  0  0  0
 11 26  1  0  0  0  0
 12 13  1  0  0  0  0
 12 14  1  0  0  0  0
 12 15  1  0  0  0  0
M  END
$$$$
