
  -OEChem-08192616593D

 35 34  0     0  0  0  0  0  0999 V2000
   -1.3554    0.5297    5.2542 C   0  0  0  0  0  0  0  0  0  0  0  0
   -2.0382    0.2892    3.9030 C   0  0  0  0  0  0  0  0  0  0  0  0
   -1.1064   -0.3444    2.8631 C   0  0  0  0  0  0  0  0  0  0  0  0
   -1.7851   -0.5779    1.5072 C   0  0  0  0  0  0  0  0  0  0  0  0
   -0.9127   -1.3054    0.4733 C   0  0  0  0  0  0  0  0  0  0  0  0
    0.3368   -0.5282    0.0365 C   0  0  0  0  0  0  0  0  0  0  0  0
    1.1144   -1.2562   -1.0672 C   0  0  0  0  0  0  0  0  0  0  0  0
    2.4104   -0.5800   -1.5775 C   0  0  0  0  0  0  0  0  0  0  0  0
    3.4384   -0.4359   -0.4396 C   0  0  0  0  0  0  0  0  0  0  0  0
    3.0112   -1.4739   -2.6791 C   0  0  0  0  0  0  0  0  0  0  0  0
    2.1061    0.8071   -2.1734 C   0  0  0  0  0  0  0  0  0  0  0  0
   -2.0437    0.9801    5.9777 H   0  0  0  0  0  0  0  0  0  0  0  0
   -0.9880   -0.4099    5.6834 H   0  0  0  0  0  0  0  0  0  0  0  0
   -0.4960    1.2021    5.1482 H   0  0  0  0  0  0  0  0  0  0  0  0
   -2.4216    1.2410    3.5117 H   0  0  0  0  0  0  0  0  0  0  0  0
   -2.9147   -0.3569    4.0448 H   0  0  0  0  0  0  0  0  0  0  0  0
   -0.2265    0.2989    2.7364 H   0  0  0  0  0  0  0  0  0  0  0  0
   -0.7306   -1.3028    3.2492 H   0  0  0  0  0  0  0  0  0  0  0  0
   -2.1085    0.3876    1.0936 H   0  0  0  0  0  0  0  0  0  0  0  0
   -2.7016   -1.1613    1.6683 H   0  0  0  0  0  0  0  0  0  0  0  0
   -0.6091   -2.2811    0.8779 H   0  0  0  0  0  0  0  0  0  0  0  0
   -1.5226   -1.5212   -0.4142 H   0  0  0  0  0  0  0  0  0  0  0  0
    0.0297    0.4661   -0.3116 H   0  0  0  0  0  0  0  0  0  0  0  0
    0.9873   -0.3661    0.9025 H   0  0  0  0  0  0  0  0  0  0  0  0
    0.4450   -1.4065   -1.9259 H   0  0  0  0  0  0  0  0  0  0  0  0
    1.3722   -2.2623   -0.7073 H   0  0  0  0  0  0  0  0  0  0  0  0
    4.3851   -0.0366   -0.8215 H   0  0  0  0  0  0  0  0  0  0  0  0
    3.6489   -1.4056    0.0270 H   0  0  0  0  0  0  0  0  0  0  0  0
    3.0874    0.2443    0.3428 H   0  0  0  0  0  0  0  0  0  0  0  0
    3.9361   -1.0412   -3.0778 H   0  0  0  0  0  0  0  0  0  0  0  0
    3.2480   -2.4720   -2.2926 H   0  0  0  0  0  0  0  0  0  0  0  0
    2.3116   -1.5960   -3.5143 H   0  0  0  0  0  0  0  0  0  0  0  0
    3.0092    1.2469   -2.6122 H   0  0  0  0  0  0  0  0  0  0  0  0
    1.7371    1.5040   -1.4142 H   0  0  0  0  0  0  0  0  0  0  0  0
    1.3495    0.7394   -2.9642 H   0  0  0  0  0  0  0  0  0  0  0  0
  1  2  1  0  0  0  0
  1 12  1  0  0  0  0
  1 13  1  0  0  0  0
  1 14  1  0  0  0  0
  2  3  1  0  0  0  0
  2 15  1  0  0  0  0
  2 16  1  0  0  0  0
  3  4  1  0  0  0  0
  3 17  1  0  0  0  0
  3 18  1  0  0  0  0
  4  5  1  0  0  0  0
  4 19  1  0  0  0  0
  4 20  1  0  0  0  0
  5  6  1  0  0  0  0
  5 21  1  0  0  0  0
  5 22  1  0  0  0  0
  6  7  1  0  0  0  0
  6 23  1  0  0  0  0
  6 24  1  0  0  0  0
  7  8  1  0  0  0  0
  7 25  1  0  0  0  0
  7 26  1  0  0  0  0
  8  9  1  0  0  0  0
  8 10  1  0  0  0  0
  8 11  1  0  0  0  0
  9 27  1  0  0  0  0
  9 28  1  0  0  0  0
  9 29  1  0  0  0  0
 10 30  1  0  0  0  0
 10 31  1  0  0  0  0
 10 32  1  0  0  0  0
 11 33  1  0  0  0  0
 11 34  1  0  0  0  0
 11 35  1  0  0  0  0
M  END
$$$$
