
  -OEChem-08192616593D

 23 22  0     0  0  0  0  0  0999 V2000
    0.0020   -0.6696   -0.7718 C   0  0  0  0  0  0  0  0  0  0  0  0
    1.3605   -0.4141   -1.4380 C   0  0  0  0  0  0  0  0  0  0  0  0
    2.5718   -0.6685   -0.5262 C   0  0  0  0  0  0  0  0  0  0  0  0
    2.7449   -2.1335   -0.1017 C   0  0  0  0  0  0  0  0  0  0  0  0
    3.9494   -2.3880    0.8180 C   0  0  0  0  0  0  0  0  0  0  0  0
    5.3183   -2.1420    0.1693 C   0  0  0  0  0  0  0  0  0  0  0  0
    6.4850   -2.5048    1.0953 C   0  0  0  0  0  0  0  0  0  0  0  0
   -0.8217   -0.4009   -1.4420 H   0  0  0  0  0  0  0  0  0  0  0  0
   -0.1045   -0.0735    0.1425 H   0  0  0  0  0  0  0  0  0  0  0  0
   -0.1283   -1.7216   -0.4985 H   0  0  0  0  0  0  0  0  0  0  0  0
    1.3952    0.6265   -1.7844 H   0  0  0  0  0  0  0  0  0  0  0  0
    1.4492   -1.0378   -2.3377 H   0  0  0  0  0  0  0  0  0  0  0  0
    3.4750   -0.3310   -1.0481 H   0  0  0  0  0  0  0  0  0  0  0  0
    2.4851   -0.0417    0.3730 H   0  0  0  0  0  0  0  0  0  0  0  0
    1.8388   -2.4715    0.4148 H   0  0  0  0  0  0  0  0  0  0  0  0
    2.8364   -2.7601   -1.0005 H   0  0  0  0  0  0  0  0  0  0  0  0
    3.9113   -3.4281    1.1688 H   0  0  0  0  0  0  0  0  0  0  0  0
    3.8579   -1.7617    1.7167 H   0  0  0  0  0  0  0  0  0  0  0  0
    5.3878   -2.7295   -0.7564 H   0  0  0  0  0  0  0  0  0  0  0  0
    5.4090   -1.0907   -0.1277 H   0  0  0  0  0  0  0  0  0  0  0  0
    7.4519   -2.3235    0.6131 H   0  0  0  0  0  0  0  0  0  0  0  0
    6.4557   -1.9116    2.0169 H   0  0  0  0  0  0  0  0  0  0  0  0
    6.4479   -3.5622    1.3825 H   0  0  0  0  0  0  0  0  0  0  0  0
  1  2  1  0  0  0  0
  1  8  1  0  0  0  0
  1  9  1  0  0  0  0
  1 10  1  0  0  0  0
  2  3  1  0  0  0  0
  2 11  1  0  0  0  0
  2 12  1  0  0  0  0
  3  4  1  0  0  0  0
  3 13  1  0  0  0  0
  3 14  1  0  0  0  0
  4  5  1  0  0  0  0
  4 15  1  0  0  0  0
  4 16  1  0  0  0  0
  5  6  1  0  0  0  0
  5 17  1  0  0  0  0
  5 18  1  0  0  0  0
  6  7  1  0  0  0  0
  6 19  1  0  0  0  0
  6 20  1  0  0  0  0
  7 21  1  0  0  0  0
  7 22  1  0  0  0  0
  7 23  1  0  0  0  0
M  END
$$$$
