
  -OEChem-08192616593D

 23 22  0     0  0  0  0  0  0999 V2000
    0.0543   -0.5380   -0.8728 C   0  0  0  0  0  0  0  0  0  0  0  0
    1.4593   -0.3748   -1.4675 C   0  0  0  0  0  0  0  0  0  0  0  0
    2.5991   -0.7049   -0.4913 C   0  0  0  0  0  0  0  0  0  0  0  0
    2.6458   -2.1705   -0.0402 C   0  0  0  0  0  0  0  0  0  0  0  0
    3.8433   -2.4761    0.8687 C   0  0  0  0  0  0  0  0  0  0  0  0
    3.9713   -3.9512    1.2794 C   0  0  0  0  0  0  0  0  0  0  0  0
    2.8141   -4.4658    2.1456 C   0  0  0  0  0  0  0  0  0  0  0  0
   -0.7150   -0.2245   -1.5868 H   0  0  0  0  0  0  0  0  0  0  0  0
   -0.0621    0.0716    0.0314 H   0  0  0  0  0  0  0  0  0  0  0  0
   -0.1548   -1.5775   -0.6006 H   0  0  0  0  0  0  0  0  0  0  0  0
    1.5813    0.6594   -1.8135 H   0  0  0  0  0  0  0  0  0  0  0  0
    1.5536   -1.0082   -2.3599 H   0  0  0  0  0  0  0  0  0  0  0  0
    3.5564   -0.4502   -0.9656 H   0  0  0  0  0  0  0  0  0  0  0  0
    2.5157   -0.0574    0.3931 H   0  0  0  0  0  0  0  0  0  0  0  0
    1.7159   -2.4241    0.4803 H   0  0  0  0  0  0  0  0  0  0  0  0
    2.6895   -2.8202   -0.9264 H   0  0  0  0  0  0  0  0  0  0  0  0
    3.7783   -1.8541    1.7728 H   0  0  0  0  0  0  0  0  0  0  0  0
    4.7645   -2.1704    0.3547 H   0  0  0  0  0  0  0  0  0  0  0  0
    4.0549   -4.5712    0.3766 H   0  0  0  0  0  0  0  0  0  0  0  0
    4.9124   -4.0831    1.8281 H   0  0  0  0  0  0  0  0  0  0  0  0
    2.9903   -5.4984    2.4662 H   0  0  0  0  0  0  0  0  0  0  0  0
    2.6961   -3.8525    3.0472 H   0  0  0  0  0  0  0  0  0  0  0  0
    1.8618   -4.4479    1.6060 H   0  0  0  0  0  0  0  0  0  0  0  0
  1  2  1  0  0  0  0
  1  8  1  0  0  0  0
  1  9  1  0  0  0  0
  1 10  1  0  0  0  0
  2  3  1  0  0  0  0
  2 11  1  0  0  0  0
  2 12  1  0  0  0  0
  3  4  1  0  0  0  0
  3 13  1  0  0  0  0
  3 14  1  0  0  0  0
  4  5  1  0  0  0  0
  4 15  1  0  0  0  0
  4 16  1  0  0  0  0
  5  6  1  0  0  0  0
  5 17  1  0  0  0  0
  5 18  1  0  0  0  0
  6  7  1  0  0  0  0
  6 19  1  0  0  0  0
  6 20  1  0  0  0  0
  7 21  1  0  0  0  0
  7 22  1  0  0  0  0
  7 23  1  0  0  0  0
M  END
$$$$
