
  -OEChem-08192616593D

 26 25  0     0  0  0  0  0  0999 V2000
   -2.3165    4.3989   -5.1344 H   0  0  0  0  0  0  0  0  0  0  0  0
   -1.4027    4.1024   -5.6652 C   0  0  0  0  0  0  0  0  0  0  0  0
   -1.4336    3.0173   -5.8028 H   0  0  0  0  0  0  0  0  0  0  0  0
   -1.4319    4.5629   -6.6591 H   0  0  0  0  0  0  0  0  0  0  0  0
   -0.1554    4.5499   -4.8884 C   0  0  0  0  0  0  0  0  0  0  0  0
    0.7295    4.1885   -5.4325 H   0  0  0  0  0  0  0  0  0  0  0  0
   -0.1068    3.9541   -3.4698 C   0  0  0  0  0  0  0  0  0  0  0  0
   -0.0331    2.4218   -3.4173 C   0  0  0  0  0  0  0  0  0  0  0  0
    0.2413    1.8560   -2.0156 C   0  0  0  0  0  0  0  0  0  0  0  0
   -0.8663    2.1318   -0.9899 C   0  0  0  0  0  0  0  0  0  0  0  0
   -0.5954    1.4714    0.3667 C   0  0  0  0  0  0  0  0  0  0  0  0
   -0.0791    6.0825   -4.8304 C   0  0  0  0  0  0  0  0  0  0  0  0
    0.8253    6.4180   -4.3102 H   0  0  0  0  0  0  0  0  0  0  0  0
   -0.9435    6.4958   -4.2957 H   0  0  0  0  0  0  0  0  0  0  0  0
   -0.0709    6.5195   -5.8354 H   0  0  0  0  0  0  0  0  0  0  0  0
   -0.9850    4.3068   -2.9126 H   0  0  0  0  0  0  0  0  0  0  0  0
    0.7694    4.3645   -2.9483 H   0  0  0  0  0  0  0  0  0  0  0  0
   -0.9661    1.9880   -3.7981 H   0  0  0  0  0  0  0  0  0  0  0  0
    0.7615    2.0833   -4.0962 H   0  0  0  0  0  0  0  0  0  0  0  0
    0.3852    0.7699   -2.0938 H   0  0  0  0  0  0  0  0  0  0  0  0
    1.1907    2.2623   -1.6389 H   0  0  0  0  0  0  0  0  0  0  0  0
   -0.9820    3.2128   -0.8481 H   0  0  0  0  0  0  0  0  0  0  0  0
   -1.8239    1.7709   -1.3896 H   0  0  0  0  0  0  0  0  0  0  0  0
   -1.3960    1.6835    1.0838 H   0  0  0  0  0  0  0  0  0  0  0  0
   -0.5154    0.3825    0.2675 H   0  0  0  0  0  0  0  0  0  0  0  0
    0.3445    1.8329    0.8001 H   0  0  0  0  0  0  0  0  0  0  0  0
  1  2  1  0  0  0  0
  2  3  1  0  0  0  0
  2  4  1  0  0  0  0
  2  5  1  0  0  0  0
  5  6  1  0  0  0  0
  5  7  1  0  0  0  0
  5 12  1  0  0  0  0
  7  8  1  0  0  0  0
  7 16  1  0  0  0  0
  7 17  1  0  0  0  0
  8  9  1  0  0  0  0
  8 18  1  0  0  0  0
  8 19  1  0  0  0  0
  9 10  1  0  0  0  0
  9 20  1  0  0  0  0
  9 21  1  0  0  0  0
 10 11  1  0  0  0  0
 10 22  1  0  0  0  0
 10 23  1  0  0  0  0
 11 24  1  0  0  0  0
 11 25  1  0  0  0  0
 11 26  1  0  0  0  0
 12 13  1  0  0  0  0
 12 14  1  0  0  0  0
 12 15  1  0  0  0  0
M  END
$$$$
