
  -OEChem-08192616593D

 50 49  0     1  0  0  0  0  0999 V2000
   -5.1951   -4.1416   -2.0289 C   0  0  0  0  0  0  0  0  0  0  0  0
   -3.9823   -3.3905   -1.4648 C   0  0  0  0  0  0  0  0  0  0  0  0
   -2.6266   -4.0787   -1.7128 C   0  0  2  0  0  0  0  0  0  0  0  0
   -2.5736   -5.4791   -1.0829 C   0  0  0  0  0  0  0  0  0  0  0  0
   -1.4475   -3.2288   -1.2009 C   0  0  0  0  0  0  0  0  0  0  0  0
   -1.2619   -1.8715   -1.8909 C   0  0  0  0  0  0  0  0  0  0  0  0
    0.0086   -1.1406   -1.4403 C   0  0  0  0  0  0  0  0  0  0  0  0
    0.1917    0.2272   -2.1075 C   0  0  0  0  0  0  0  0  0  0  0  0
    1.4609    0.9614   -1.6605 C   0  0  0  0  0  0  0  0  0  0  0  0
    1.6354    2.3329   -2.3226 C   0  0  0  0  0  0  0  0  0  0  0  0
    2.9030    3.0706   -1.8770 C   0  0  0  0  0  0  0  0  0  0  0  0
    3.0689    4.4461   -2.5340 C   0  0  0  0  0  0  0  0  0  0  0  0
    4.3450    5.1726   -2.0922 C   0  0  0  0  0  0  0  0  0  0  0  0
    4.4976    6.6091   -2.6239 C   0  0  0  0  0  0  0  0  0  0  0  0
    4.5793    6.6595   -4.1569 C   0  0  0  0  0  0  0  0  0  0  0  0
    5.7262    7.2851   -1.9980 C   0  0  0  0  0  0  0  0  0  0  0  0
   -6.1100   -3.5513   -1.9081 H   0  0  0  0  0  0  0  0  0  0  0  0
   -5.0694   -4.3430   -3.0996 H   0  0  0  0  0  0  0  0  0  0  0  0
   -5.3564   -5.1007   -1.5273 H   0  0  0  0  0  0  0  0  0  0  0  0
   -3.9611   -2.3886   -1.9070 H   0  0  0  0  0  0  0  0  0  0  0  0
   -4.1115   -3.2448   -0.3827 H   0  0  0  0  0  0  0  0  0  0  0  0
   -2.5056   -4.1937   -2.8009 H   0  0  0  0  0  0  0  0  0  0  0  0
   -1.5959   -5.9455   -1.2478 H   0  0  0  0  0  0  0  0  0  0  0  0
   -3.3315   -6.1482   -1.5008 H   0  0  0  0  0  0  0  0  0  0  0  0
   -2.7368   -5.4245    0.0010 H   0  0  0  0  0  0  0  0  0  0  0  0
   -0.5236   -3.8099   -1.3254 H   0  0  0  0  0  0  0  0  0  0  0  0
   -1.5620   -3.0741   -0.1182 H   0  0  0  0  0  0  0  0  0  0  0  0
   -1.2278   -2.0200   -2.9795 H   0  0  0  0  0  0  0  0  0  0  0  0
   -2.1267   -1.2256   -1.6979 H   0  0  0  0  0  0  0  0  0  0  0  0
    0.8848   -1.7689   -1.6522 H   0  0  0  0  0  0  0  0  0  0  0  0
   -0.0154   -1.0115   -0.3493 H   0  0  0  0  0  0  0  0  0  0  0  0
    0.2123    0.0987   -3.1987 H   0  0  0  0  0  0  0  0  0  0  0  0
   -0.6842    0.8550   -1.8928 H   0  0  0  0  0  0  0  0  0  0  0  0
    1.4427    1.0853   -0.5688 H   0  0  0  0  0  0  0  0  0  0  0  0
    2.3382    0.3374   -1.8804 H   0  0  0  0  0  0  0  0  0  0  0  0
    0.7574    2.9558   -2.1021 H   0  0  0  0  0  0  0  0  0  0  0  0
    1.6528    2.2089   -3.4143 H   0  0  0  0  0  0  0  0  0  0  0  0
    3.7822    2.4518   -2.1040 H   0  0  0  0  0  0  0  0  0  0  0  0
    2.8893    3.1889   -0.7846 H   0  0  0  0  0  0  0  0  0  0  0  0
    2.1957    5.0693   -2.2945 H   0  0  0  0  0  0  0  0  0  0  0  0
    3.0653    4.3212   -3.6237 H   0  0  0  0  0  0  0  0  0  0  0  0
    4.3693    5.2031   -0.9943 H   0  0  0  0  0  0  0  0  0  0  0  0
    5.2228    4.5847   -2.3982 H   0  0  0  0  0  0  0  0  0  0  0  0
    3.6070    7.1753   -2.3142 H   0  0  0  0  0  0  0  0  0  0  0  0
    4.7203    7.6878   -4.5084 H   0  0  0  0  0  0  0  0  0  0  0  0
    3.6726    6.2706   -4.6300 H   0  0  0  0  0  0  0  0  0  0  0  0
    5.4278    6.0651   -4.5193 H   0  0  0  0  0  0  0  0  0  0  0  0
    5.8240    8.3239   -2.3333 H   0  0  0  0  0  0  0  0  0  0  0  0
    6.6463    6.7574   -2.2787 H   0  0  0  0  0  0  0  0  0  0  0  0
    5.6657    7.2892   -0.9037 H   0  0  0  0  0  0  0  0  0  0  0  0
  1  2  1  0  0  0  0
  1 17  1  0  0  0  0
  1 18  1  0  0  0  0
  1 19  1  0  0  0  0
  2  3  1  0  0  0  0
  2 20  1  0  0  0  0
  2 21  1  0  0  0  0
  3  4  1  0  0  0  0
  3  5  1  0  0  0  0
  3 22  1  0  0  0  0
  4 23  1  0  0  0  0
  4 24  1  0  0  0  0
  4 25  1  0  0  0  0
  5  6  1  0  0  0  0
  5 26  1  0  0  0  0
  5 27  1  0  0  0  0
  6  7  1  0  0  0  0
  6 28  1  0  0  0  0
  6 29  1  0  0  0  0
  7  8  1  0  0  0  0
  7 30  1  0  0  0  0
  7 31  1  0  0  0  0
  8  9  1  0  0  0  0
  8 32  1  0  0  0  0
  8 33  1  0  0  0  0
  9 10  1  0  0  0  0
  9 34  1  0  0  0  0
  9 35  1  0  0  0  0
 10 11  1  0  0  0  0
 10 36  1  0  0  0  0
 10 37  1  0  0  0  0
 11 12  1  0  0  0  0
 11 38  1  0  0  0  0
 11 39  1  0  0  0  0
 12 13  1  0  0  0  0
 12 40  1  0  0  0  0
 12 41  1  0  0  0  0
 13 14  1  0  0  0  0
 13 42  1  0  0  0  0
 13 43  1  0  0  0  0
 14 15  1  0  0  0  0
 14 16  1  0  0  0  0
 14 44  1  0  0  0  0
 15 45  1  0  0  0  0
 15 46  1  0  0  0  0
 15 47  1  0  0  0  0
 16 48  1  0  0  0  0
 16 49  1  0  0  0  0
 16 50  1  0  0  0  0
M  END
$$$$
