
  -OEChem-08192616593D

 50 49  0     1  0  0  0  0  0999 V2000
    1.1350   -5.6412   -3.1781 C   0  0  0  0  0  0  0  0  0  0  0  0
   -0.0186   -4.6538   -2.9600 C   0  0  0  0  0  0  0  0  0  0  0  0
   -0.3157   -4.3313   -1.4843 C   0  0  2  0  0  0  0  0  0  0  0  0
   -0.6929   -5.5885   -0.6858 C   0  0  0  0  0  0  0  0  0  0  0  0
   -1.4297   -3.2751   -1.3387 C   0  0  0  0  0  0  0  0  0  0  0  0
   -1.1909   -1.9230   -2.0296 C   0  0  0  0  0  0  0  0  0  0  0  0
    0.0859   -1.1994   -1.5849 C   0  0  0  0  0  0  0  0  0  0  0  0
    0.2265    0.2013   -2.1914 C   0  0  0  0  0  0  0  0  0  0  0  0
    1.5095    0.9240   -1.7657 C   0  0  0  0  0  0  0  0  0  0  0  0
    1.6452    2.3296   -2.3620 C   0  0  0  0  0  0  0  0  0  0  0  0
    2.9300    3.0504   -1.9383 C   0  0  0  0  0  0  0  0  0  0  0  0
    3.0591    4.4616   -2.5238 C   0  0  0  0  0  0  0  0  0  0  0  0
    4.3550    5.1672   -2.1060 C   0  0  0  0  0  0  0  0  0  0  0  0
    4.4766    6.6344   -2.5557 C   0  0  0  0  0  0  0  0  0  0  0  0
    4.4756    6.7795   -4.0847 C   0  0  0  0  0  0  0  0  0  0  0  0
    5.7361    7.2765   -1.9558 C   0  0  0  0  0  0  0  0  0  0  0  0
    1.3613   -5.7481   -4.2446 H   0  0  0  0  0  0  0  0  0  0  0  0
    2.0479   -5.2949   -2.6785 H   0  0  0  0  0  0  0  0  0  0  0  0
    0.9029   -6.6382   -2.7915 H   0  0  0  0  0  0  0  0  0  0  0  0
    0.2193   -3.7238   -3.4885 H   0  0  0  0  0  0  0  0  0  0  0  0
   -0.9322   -5.0457   -3.4294 H   0  0  0  0  0  0  0  0  0  0  0  0
    0.6036   -3.9226   -1.0418 H   0  0  0  0  0  0  0  0  0  0  0  0
   -0.9346   -5.3336    0.3522 H   0  0  0  0  0  0  0  0  0  0  0  0
    0.1191   -6.3215   -0.6634 H   0  0  0  0  0  0  0  0  0  0  0  0
   -1.5737   -6.0773   -1.1212 H   0  0  0  0  0  0  0  0  0  0  0  0
   -1.5911   -3.0942   -0.2672 H   0  0  0  0  0  0  0  0  0  0  0  0
   -2.3683   -3.7044   -1.7172 H   0  0  0  0  0  0  0  0  0  0  0  0
   -1.1737   -2.0509   -3.1190 H   0  0  0  0  0  0  0  0  0  0  0  0
   -2.0542   -1.2769   -1.8215 H   0  0  0  0  0  0  0  0  0  0  0  0
    0.9667   -1.7949   -1.8569 H   0  0  0  0  0  0  0  0  0  0  0  0
    0.0973   -1.1244   -0.4883 H   0  0  0  0  0  0  0  0  0  0  0  0
    0.1993    0.1259   -3.2874 H   0  0  0  0  0  0  0  0  0  0  0  0
   -0.6439    0.8089   -1.9076 H   0  0  0  0  0  0  0  0  0  0  0  0
    1.5411    0.9909   -0.6693 H   0  0  0  0  0  0  0  0  0  0  0  0
    2.3800    0.3203   -2.0578 H   0  0  0  0  0  0  0  0  0  0  0  0
    0.7762    2.9340   -2.0668 H   0  0  0  0  0  0  0  0  0  0  0  0
    1.6105    2.2637   -3.4583 H   0  0  0  0  0  0  0  0  0  0  0  0
    3.7993    2.4509   -2.2421 H   0  0  0  0  0  0  0  0  0  0  0  0
    2.9693    3.1074   -0.8417 H   0  0  0  0  0  0  0  0  0  0  0  0
    2.1981    5.0660   -2.2050 H   0  0  0  0  0  0  0  0  0  0  0  0
    3.0004    4.3991   -3.6173 H   0  0  0  0  0  0  0  0  0  0  0  0
    4.4367    5.1309   -1.0110 H   0  0  0  0  0  0  0  0  0  0  0  0
    5.2167    4.6037   -2.4926 H   0  0  0  0  0  0  0  0  0  0  0  0
    3.6032    7.1762   -2.1643 H   0  0  0  0  0  0  0  0  0  0  0  0
    4.5948    7.8283   -4.3791 H   0  0  0  0  0  0  0  0  0  0  0  0
    3.5457    6.4151   -4.5317 H   0  0  0  0  0  0  0  0  0  0  0  0
    5.3048    6.2136   -4.5281 H   0  0  0  0  0  0  0  0  0  0  0  0
    5.8140    8.3344   -2.2308 H   0  0  0  0  0  0  0  0  0  0  0  0
    6.6406    6.7718   -2.3176 H   0  0  0  0  0  0  0  0  0  0  0  0
    5.7346    7.2125   -0.8618 H   0  0  0  0  0  0  0  0  0  0  0  0
  1  2  1  0  0  0  0
  1 17  1  0  0  0  0
  1 18  1  0  0  0  0
  1 19  1  0  0  0  0
  2  3  1  0  0  0  0
  2 20  1  0  0  0  0
  2 21  1  0  0  0  0
  3  4  1  0  0  0  0
  3  5  1  0  0  0  0
  3 22  1  0  0  0  0
  4 23  1  0  0  0  0
  4 24  1  0  0  0  0
  4 25  1  0  0  0  0
  5  6  1  0  0  0  0
  5 26  1  0  0  0  0
  5 27  1  0  0  0  0
  6  7  1  0  0  0  0
  6 28  1  0  0  0  0
  6 29  1  0  0  0  0
  7  8  1  0  0  0  0
  7 30  1  0  0  0  0
  7 31  1  0  0  0  0
  8  9  1  0  0  0  0
  8 32  1  0  0  0  0
  8 33  1  0  0  0  0
  9 10  1  0  0  0  0
  9 34  1  0  0  0  0
  9 35  1  0  0  0  0
 10 11  1  0  0  0  0
 10 36  1  0  0  0  0
 10 37  1  0  0  0  0
 11 12  1  0  0  0  0
 11 38  1  0  0  0  0
 11 39  1  0  0  0  0
 12 13  1  0  0  0  0
 12 40  1  0  0  0  0
 12 41  1  0  0  0  0
 13 14  1  0  0  0  0
 13 42  1  0  0  0  0
 13 43  1  0  0  0  0
 14 15  1  0  0  0  0
 14 16  1  0  0  0  0
 14 44  1  0  0  0  0
 15 45  1  0  0  0  0
 15 46  1  0  0  0  0
 15 47  1  0  0  0  0
 16 48  1  0  0  0  0
 16 49  1  0  0  0  0
 16 50  1  0  0  0  0
M  END
$$$$
