
  -OEChem-08192616593D

 23 22  0     0  0  0  0  0  0999 V2000
    1.4500    0.9368   -2.0127 C   0  0  0  0  0  0  0  0  0  0  0  0
    1.3871   -0.4405   -1.3424 C   0  0  0  0  0  0  0  0  0  0  0  0
    2.5870   -0.7211   -0.4267 C   0  0  0  0  0  0  0  0  0  0  0  0
    2.7315   -2.1983   -0.0430 C   0  0  0  0  0  0  0  0  0  0  0  0
    3.9100   -2.4725    0.8979 C   0  0  0  0  0  0  0  0  0  0  0  0
    4.0654   -3.9524    1.2682 C   0  0  0  0  0  0  0  0  0  0  0  0
    5.2453   -4.2154    2.2108 C   0  0  0  0  0  0  0  0  0  0  0  0
    0.5735    1.1166   -2.6449 H   0  0  0  0  0  0  0  0  0  0  0  0
    2.3418    1.0236   -2.6441 H   0  0  0  0  0  0  0  0  0  0  0  0
    1.4937    1.7405   -1.2680 H   0  0  0  0  0  0  0  0  0  0  0  0
    1.3445   -1.2131   -2.1218 H   0  0  0  0  0  0  0  0  0  0  0  0
    0.4565   -0.5371   -0.7686 H   0  0  0  0  0  0  0  0  0  0  0  0
    3.5073   -0.3980   -0.9337 H   0  0  0  0  0  0  0  0  0  0  0  0
    2.5102   -0.1057    0.4800 H   0  0  0  0  0  0  0  0  0  0  0  0
    1.8020   -2.5469    0.4291 H   0  0  0  0  0  0  0  0  0  0  0  0
    2.8497   -2.7958   -0.9574 H   0  0  0  0  0  0  0  0  0  0  0  0
    3.7877   -1.8808    1.8159 H   0  0  0  0  0  0  0  0  0  0  0  0
    4.8387   -2.1172    0.4298 H   0  0  0  0  0  0  0  0  0  0  0  0
    3.1371   -4.3075    1.7351 H   0  0  0  0  0  0  0  0  0  0  0  0
    4.1903   -4.5432    0.3511 H   0  0  0  0  0  0  0  0  0  0  0  0
    5.3326   -5.2791    2.4579 H   0  0  0  0  0  0  0  0  0  0  0  0
    6.1917   -3.8997    1.7564 H   0  0  0  0  0  0  0  0  0  0  0  0
    5.1303   -3.6629    3.1508 H   0  0  0  0  0  0  0  0  0  0  0  0
  1  2  1  0  0  0  0
  1  8  1  0  0  0  0
  1  9  1  0  0  0  0
  1 10  1  0  0  0  0
  2  3  1  0  0  0  0
  2 11  1  0  0  0  0
  2 12  1  0  0  0  0
  3  4  1  0  0  0  0
  3 13  1  0  0  0  0
  3 14  1  0  0  0  0
  4  5  1  0  0  0  0
  4 15  1  0  0  0  0
  4 16  1  0  0  0  0
  5  6  1  0  0  0  0
  5 17  1  0  0  0  0
  5 18  1  0  0  0  0
  6  7  1  0  0  0  0
  6 19  1  0  0  0  0
  6 20  1  0  0  0  0
  7 21  1  0  0  0  0
  7 22  1  0  0  0  0
  7 23  1  0  0  0  0
M  END
> <grid_ids>
[(-165,), (-150,), (-135,), (-120,), (-105,), (-90,), (-75,), (-60,), (-45,), (-30,), (-15,), (0,), (15,), (30,), (45,), (60,), (75,), (90,), (105,), (120,), (135,), (150,), (165,), (180,)]

$$$$
