
  -OEChem-08192616593D

 15 14  0     0  0  0  0  0  0999 V2000
    0.0942    2.6716    2.0507 C   0  0  0  0  0  0  0  0  0  0  0  0
    0.9393    1.9631    0.9757 C   0  0  0  0  0  0  0  0  0  0  0  0
    0.6584    0.4857    0.8974 C   0  0  0  0  0  0  0  0  0  0  0  0
    1.5510   -0.4875    1.1198 C   0  0  0  0  0  0  0  0  0  0  0  0
    1.2627   -1.9627    1.0493 C   0  0  0  0  0  0  0  0  0  0  0  0
    0.1115    3.7589    1.9183 H   0  0  0  0  0  0  0  0  0  0  0  0
    0.4485    2.4303    3.0577 H   0  0  0  0  0  0  0  0  0  0  0  0
   -0.9545    2.3583    1.9863 H   0  0  0  0  0  0  0  0  0  0  0  0
    0.7151    2.4166    0.0001 H   0  0  0  0  0  0  0  0  0  0  0  0
    2.0060    2.1331    1.1602 H   0  0  0  0  0  0  0  0  0  0  0  0
   -0.3699    0.2095    0.6509 H   0  0  0  0  0  0  0  0  0  0  0  0
    2.5759   -0.2068    1.3718 H   0  0  0  0  0  0  0  0  0  0  0  0
    1.8918   -2.4538    0.2962 H   0  0  0  0  0  0  0  0  0  0  0  0
    0.2158   -2.1546    0.7944 H   0  0  0  0  0  0  0  0  0  0  0  0
    1.4753   -2.4536    2.0075 H   0  0  0  0  0  0  0  0  0  0  0  0
  1  2  1  0  0  0  0
  1  6  1  0  0  0  0
  1  7  1  0  0  0  0
  1  8  1  0  0  0  0
  2  3  1  0  0  0  0
  2  9  1  0  0  0  0
  2 10  1  0  0  0  0
  3  4  2  0  0  0  0
  3 11  1  0  0  0  0
  4  5  1  0  0  0  0
  4 12  1  0  0  0  0
  5 13  1  0  0  0  0
  5 14  1  0  0  0  0
  5 15  1  0  0  0  0
M  END
> <grid_ids>
[(-165,), (-150,), (-135,), (-120,), (-105,), (-90,), (-75,), (-60,), (-45,), (-30,), (-15,), (0,), (15,), (30,), (45,), (60,), (75,), (90,), (105,), (120,), (135,), (150,), (165,), (180,)]

$$$$
