
  -OEChem-08192616593D

 15 14  0     0  0  0  0  0  0999 V2000
    0.0948    2.5701    1.7672 C   0  0  0  0  0  0  0  0  0  0  0  0
    1.2054    1.7039    1.1591 C   0  0  0  0  0  0  0  0  0  0  0  0
    0.8587    0.2293    1.1385 C   0  0  0  0  0  0  0  0  0  0  0  0
    1.7294   -0.7674    0.9361 C   0  0  0  0  0  0  0  0  0  0  0  0
    1.3735   -2.2279    0.8698 C   0  0  0  0  0  0  0  0  0  0  0  0
    0.3683    3.6304    1.7598 H   0  0  0  0  0  0  0  0  0  0  0  0
   -0.1092    2.2826    2.8048 H   0  0  0  0  0  0  0  0  0  0  0  0
   -0.8385    2.4622    1.2029 H   0  0  0  0  0  0  0  0  0  0  0  0
    1.3912    2.0448    0.1314 H   0  0  0  0  0  0  0  0  0  0  0  0
    2.1444    1.8588    1.7037 H   0  0  0  0  0  0  0  0  0  0  0  0
   -0.1988   -0.0196    1.2540 H   0  0  0  0  0  0  0  0  0  0  0  0
    2.7871   -0.5228    0.8127 H   0  0  0  0  0  0  0  0  0  0  0  0
    1.6566   -2.6607   -0.0983 H   0  0  0  0  0  0  0  0  0  0  0  0
    0.2993   -2.3842    1.0099 H   0  0  0  0  0  0  0  0  0  0  0  0
    1.9049   -2.8018    1.6396 H   0  0  0  0  0  0  0  0  0  0  0  0
  1  2  1  0  0  0  0
  1  6  1  0  0  0  0
  1  7  1  0  0  0  0
  1  8  1  0  0  0  0
  2  3  1  0  0  0  0
  2  9  1  0  0  0  0
  2 10  1  0  0  0  0
  3  4  2  0  0  0  0
  3 11  1  0  0  0  0
  4  5  1  0  0  0  0
  4 12  1  0  0  0  0
  5 13  1  0  0  0  0
  5 14  1  0  0  0  0
  5 15  1  0  0  0  0
M  END
> <grid_ids>
[(-165,), (-150,), (-135,), (-120,), (-105,), (-90,), (-75,), (-60,), (-45,), (-30,), (-15,), (0,), (15,), (30,), (45,), (60,), (75,), (90,), (105,), (120,), (135,), (150,), (165,), (180,)]

$$$$
