
  -OEChem-08192616593D

 23 22  0     0  0  0  0  0  0999 V2000
    1.3982    1.1211   -1.7831 C   0  0  0  0  0  0  0  0  0  0  0  0
    1.4290   -0.3380   -1.3146 C   0  0  0  0  0  0  0  0  0  0  0  0
    2.7323   -0.7129   -0.5988 C   0  0  0  0  0  0  0  0  0  0  0  0
    2.7857   -2.1803   -0.1526 C   0  0  0  0  0  0  0  0  0  0  0  0
    3.8962   -2.4703    0.8637 C   0  0  0  0  0  0  0  0  0  0  0  0
    3.9697   -3.9425    1.2856 C   0  0  0  0  0  0  0  0  0  0  0  0
    5.0728   -4.2189    2.3137 C   0  0  0  0  0  0  0  0  0  0  0  0
    0.4529    1.3634   -2.2809 H   0  0  0  0  0  0  0  0  0  0  0  0
    2.2100    1.3260   -2.4908 H   0  0  0  0  0  0  0  0  0  0  0  0
    1.5162    1.8093   -0.9378 H   0  0  0  0  0  0  0  0  0  0  0  0
    1.2819   -1.0027   -2.1766 H   0  0  0  0  0  0  0  0  0  0  0  0
    0.5842   -0.5247   -0.6387 H   0  0  0  0  0  0  0  0  0  0  0  0
    3.5894   -0.4933   -1.2499 H   0  0  0  0  0  0  0  0  0  0  0  0
    2.8478   -0.0646    0.2813 H   0  0  0  0  0  0  0  0  0  0  0  0
    1.8198   -2.4547    0.2945 H   0  0  0  0  0  0  0  0  0  0  0  0
    2.9069   -2.8284   -1.0310 H   0  0  0  0  0  0  0  0  0  0  0  0
    3.7404   -1.8454    1.7539 H   0  0  0  0  0  0  0  0  0  0  0  0
    4.8658   -2.1653    0.4451 H   0  0  0  0  0  0  0  0  0  0  0  0
    2.9991   -4.2488    1.6981 H   0  0  0  0  0  0  0  0  0  0  0  0
    4.1330   -4.5657    0.3964 H   0  0  0  0  0  0  0  0  0  0  0  0
    5.1031   -5.2770    2.5957 H   0  0  0  0  0  0  0  0  0  0  0  0
    6.0588   -3.9511    1.9163 H   0  0  0  0  0  0  0  0  0  0  0  0
    4.9158   -3.6344    3.2278 H   0  0  0  0  0  0  0  0  0  0  0  0
  1  2  1  0  0  0  0
  1  8  1  0  0  0  0
  1  9  1  0  0  0  0
  1 10  1  0  0  0  0
  2  3  1  0  0  0  0
  2 11  1  0  0  0  0
  2 12  1  0  0  0  0
  3  4  1  0  0  0  0
  3 13  1  0  0  0  0
  3 14  1  0  0  0  0
  4  5  1  0  0  0  0
  4 15  1  0  0  0  0
  4 16  1  0  0  0  0
  5  6  1  0  0  0  0
  5 17  1  0  0  0  0
  5 18  1  0  0  0  0
  6  7  1  0  0  0  0
  6 19  1  0  0  0  0
  6 20  1  0  0  0  0
  7 21  1  0  0  0  0
  7 22  1  0  0  0  0
  7 23  1  0  0  0  0
M  END
> <grid_ids>
[(-165,), (-150,), (-135,), (-120,), (-105,), (-90,), (-75,), (-60,), (-45,), (-30,), (-15,), (0,), (15,), (30,), (45,), (60,), (75,), (90,), (105,), (120,), (135,), (150,), (165,), (180,)]

$$$$
