
  -OEChem-08192616593D

 15 14  0     0  0  0  0  0  0999 V2000
    1.9148    2.4425   -0.3377 C   0  0  0  0  0  0  0  0  0  0  0  0
    1.3248    1.7494    0.9069 C   0  0  0  0  0  0  0  0  0  0  0  0
    1.1176    0.2724    0.6927 C   0  0  0  0  0  0  0  0  0  0  0  0
    1.6996   -0.7450    1.3462 C   0  0  0  0  0  0  0  0  0  0  0  0
    2.6972   -0.6711    2.4718 C   0  0  0  0  0  0  0  0  0  0  0  0
    2.3022    3.4363   -0.0887 H   0  0  0  0  0  0  0  0  0  0  0  0
    1.1723    2.5453   -1.1361 H   0  0  0  0  0  0  0  0  0  0  0  0
    2.7531    1.8608   -0.7361 H   0  0  0  0  0  0  0  0  0  0  0  0
    1.9858    1.9200    1.7614 H   0  0  0  0  0  0  0  0  0  0  0  0
    0.3658    2.2197    1.1618 H   0  0  0  0  0  0  0  0  0  0  0  0
    0.4194    0.0167   -0.1068 H   0  0  0  0  0  0  0  0  0  0  0  0
    1.4309   -1.7554    1.0353 H   0  0  0  0  0  0  0  0  0  0  0  0
    2.3046   -1.1625    3.3709 H   0  0  0  0  0  0  0  0  0  0  0  0
    2.9634    0.3537    2.7400 H   0  0  0  0  0  0  0  0  0  0  0  0
    3.6209   -1.1990    2.2031 H   0  0  0  0  0  0  0  0  0  0  0  0
  1  2  1  0  0  0  0
  1  6  1  0  0  0  0
  1  7  1  0  0  0  0
  1  8  1  0  0  0  0
  2  3  1  0  0  0  0
  2  9  1  0  0  0  0
  2 10  1  0  0  0  0
  3  4  2  0  0  0  0
  3 11  1  0  0  0  0
  4  5  1  0  0  0  0
  4 12  1  0  0  0  0
  5 13  1  0  0  0  0
  5 14  1  0  0  0  0
  5 15  1  0  0  0  0
M  END
> <grid_ids>
[(-165,), (-150,), (-135,), (-120,), (-105,), (-90,), (-75,), (-60,), (-45,), (-30,), (-15,), (0,), (15,), (30,), (45,), (60,), (75,), (90,), (105,), (120,), (135,), (150,), (165,), (180,)]

$$$$
