
  -OEChem-08192616593D

 15 14  0     0  0  0  0  0  0999 V2000
    4.1848   -4.0707   -0.0891 C   0  0  0  0  0  0  0  0  0  0  0  0
    3.2559   -2.9411   -0.5529 C   0  0  0  0  0  0  0  0  0  0  0  0
    1.9752   -2.8381    0.2958 C   0  0  0  0  0  0  0  0  0  0  0  0
    1.0332   -1.7735   -0.1968 C   0  0  0  0  0  0  0  0  0  0  0  0
    0.6508   -0.6968    0.4995 C   0  0  0  0  0  0  0  0  0  0  0  0
    5.1871   -3.9656   -0.5176 H   0  0  0  0  0  0  0  0  0  0  0  0
    3.7916   -5.0562   -0.3617 H   0  0  0  0  0  0  0  0  0  0  0  0
    4.3022   -4.0530    1.0012 H   0  0  0  0  0  0  0  0  0  0  0  0
    3.7833   -1.9810   -0.4988 H   0  0  0  0  0  0  0  0  0  0  0  0
    2.9902   -3.0851   -1.6079 H   0  0  0  0  0  0  0  0  0  0  0  0
    2.2441   -2.6406    1.3403 H   0  0  0  0  0  0  0  0  0  0  0  0
    1.4624   -3.8111    0.2808 H   0  0  0  0  0  0  0  0  0  0  0  0
    0.6569   -1.9026   -1.2138 H   0  0  0  0  0  0  0  0  0  0  0  0
   -0.0264    0.0436    0.0802 H   0  0  0  0  0  0  0  0  0  0  0  0
    1.0022   -0.5224    1.5154 H   0  0  0  0  0  0  0  0  0  0  0  0
  1  2  1  0  0  0  0
  1  6  1  0  0  0  0
  1  7  1  0  0  0  0
  1  8  1  0  0  0  0
  2  3  1  0  0  0  0
  2  9  1  0  0  0  0
  2 10  1  0  0  0  0
  3  4  1  0  0  0  0
  3 11  1  0  0  0  0
  3 12  1  0  0  0  0
  4  5  2  0  0  0  0
  4 13  1  0  0  0  0
  5 14  1  0  0  0  0
  5 15  1  0  0  0  0
M  END
> <grid_ids>
[(-165,), (-150,), (-135,), (-120,), (-105,), (-90,), (-75,), (-60,), (-45,), (-30,), (-15,), (0,), (15,), (30,), (45,), (60,), (75,), (90,), (105,), (120,), (135,), (150,), (165,), (180,)]

$$$$
