
  -OEChem-08192616593D

 45 44  0     0  0  0  0  0  0999 V2000
    0.4433    1.2458    2.4146 H   0  0  0  0  0  0  0  0  0  0  0  0
   -0.6378    1.0988    2.4029 C   0  0  0  0  0  0  0  0  0  0  0  0
   -1.3577    1.7960    1.5127 C   0  0  0  0  0  0  0  0  0  0  0  0
   -0.8253    2.4966    0.8675 H   0  0  0  0  0  0  0  0  0  0  0  0
   -2.8625    1.7628    1.3433 C   0  0  0  0  0  0  0  0  0  0  0  0
   -3.2325    0.7324    1.4124 H   0  0  0  0  0  0  0  0  0  0  0  0
   -3.3301    2.3077    2.1752 H   0  0  0  0  0  0  0  0  0  0  0  0
   -3.3327    2.3830    0.0191 C   0  0  0  0  0  0  0  0  0  0  0  0
   -4.4263    2.4743    0.0312 H   0  0  0  0  0  0  0  0  0  0  0  0
   -2.9401    3.4060   -0.0602 H   0  0  0  0  0  0  0  0  0  0  0  0
   -2.9092    1.5747   -1.2132 C   0  0  0  0  0  0  0  0  0  0  0  0
   -1.8173    1.4613   -1.2212 H   0  0  0  0  0  0  0  0  0  0  0  0
   -3.3166    0.5573   -1.1297 H   0  0  0  0  0  0  0  0  0  0  0  0
   -3.3654    2.1974   -2.5371 C   0  0  0  0  0  0  0  0  0  0  0  0
   -2.9543    3.2131   -2.6214 H   0  0  0  0  0  0  0  0  0  0  0  0
   -4.4584    2.3123   -2.5276 H   0  0  0  0  0  0  0  0  0  0  0  0
   -2.9532    1.3809   -3.7671 C   0  0  0  0  0  0  0  0  0  0  0  0
   -1.8601    1.2691   -3.7792 H   0  0  0  0  0  0  0  0  0  0  0  0
   -3.3608    0.3639   -3.6809 H   0  0  0  0  0  0  0  0  0  0  0  0
   -3.4128    1.9977   -5.0934 C   0  0  0  0  0  0  0  0  0  0  0  0
   -3.0047    3.0134   -5.1805 H   0  0  0  0  0  0  0  0  0  0  0  0
   -4.5053    2.1084   -5.0812 H   0  0  0  0  0  0  0  0  0  0  0  0
   -2.9960    1.1722   -6.3160 C   0  0  0  0  0  0  0  0  0  0  0  0
   -3.3365    1.6352   -7.2486 H   0  0  0  0  0  0  0  0  0  0  0  0
   -3.4178    0.1612   -6.2720 H   0  0  0  0  0  0  0  0  0  0  0  0
   -1.9057    1.0723   -6.3717 H   0  0  0  0  0  0  0  0  0  0  0  0
   -1.1659    0.0770    3.3748 C   0  0  0  0  0  0  0  0  0  0  0  0
   -2.2599    0.1071    3.4097 H   0  0  0  0  0  0  0  0  0  0  0  0
   -0.8180    0.3266    4.3871 H   0  0  0  0  0  0  0  0  0  0  0  0
   -0.7043   -1.3518    3.0323 C   0  0  0  0  0  0  0  0  0  0  0  0
   -1.0561   -1.6057    2.0241 H   0  0  0  0  0  0  0  0  0  0  0  0
    0.3928   -1.3770    2.9872 H   0  0  0  0  0  0  0  0  0  0  0  0
   -1.1991   -2.4022    4.0326 C   0  0  0  0  0  0  0  0  0  0  0  0
   -2.2963   -2.3668    4.0830 H   0  0  0  0  0  0  0  0  0  0  0  0
   -0.8403   -2.1439    5.0386 H   0  0  0  0  0  0  0  0  0  0  0  0
   -0.7543   -3.8273    3.6853 C   0  0  0  0  0  0  0  0  0  0  0  0
   -1.1108   -4.0835    2.6779 H   0  0  0  0  0  0  0  0  0  0  0  0
    0.3430   -3.8640    3.6369 H   0  0  0  0  0  0  0  0  0  0  0  0
   -1.2514   -4.8828    4.6803 C   0  0  0  0  0  0  0  0  0  0  0  0
   -0.8933   -4.6281    5.6866 H   0  0  0  0  0  0  0  0  0  0  0  0
   -2.3478   -4.8457    4.7287 H   0  0  0  0  0  0  0  0  0  0  0  0
   -0.8028   -6.3041    4.3218 C   0  0  0  0  0  0  0  0  0  0  0  0
   -1.1718   -7.0368    5.0478 H   0  0  0  0  0  0  0  0  0  0  0  0
   -1.1746   -6.5977    3.3331 H   0  0  0  0  0  0  0  0  0  0  0  0
    0.2907   -6.3790    4.2985 H   0  0  0  0  0  0  0  0  0  0  0  0
  1  2  1  0  0  0  0
  2  3  2  0  0  0  0
  2 27  1  0  0  0  0
  3  4  1  0  0  0  0
  3  5  1  0  0  0  0
  5  6  1  0  0  0  0
  5  7  1  0  0  0  0
  5  8  1  0  0  0  0
  8  9  1  0  0  0  0
  8 10  1  0  0  0  0
  8 11  1  0  0  0  0
 11 12  1  0  0  0  0
 11 13  1  0  0  0  0
 11 14  1  0  0  0  0
 14 15  1  0  0  0  0
 14 16  1  0  0  0  0
 14 17  1  0  0  0  0
 17 18  1  0  0  0  0
 17 19  1  0  0  0  0
 17 20  1  0  0  0  0
 20 21  1  0  0  0  0
 20 22  1  0  0  0  0
 20 23  1  0  0  0  0
 23 24  1  0  0  0  0
 23 25  1  0  0  0  0
 23 26  1  0  0  0  0
 27 28  1  0  0  0  0
 27 29  1  0  0  0  0
 27 30  1  0  0  0  0
 30 31  1  0  0  0  0
 30 32  1  0  0  0  0
 30 33  1  0  0  0  0
 33 34  1  0  0  0  0
 33 35  1  0  0  0  0
 33 36  1  0  0  0  0
 36 37  1  0  0  0  0
 36 38  1  0  0  0  0
 36 39  1  0  0  0  0
 39 40  1  0  0  0  0
 39 41  1  0  0  0  0
 39 42  1  0  0  0  0
 42 43  1  0  0  0  0
 42 44  1  0  0  0  0
 42 45  1  0  0  0  0
M  END
> <grid_ids>
[(-165,), (-150,), (-135,), (-120,), (-105,), (-90,), (-75,), (-60,), (-45,), (-30,), (-15,), (0,), (15,), (30,), (45,), (60,), (75,), (90,), (105,), (120,), (135,), (150,), (165,), (180,)]

$$$$
