
  -OEChem-08192616593D

 18 17  0     0  0  0  0  0  0999 V2000
    0.3336    4.2698   -0.3725 C   0  0  0  0  0  0  0  0  0  0  0  0
    0.5385    2.7775   -0.0898 C   0  0  0  0  0  0  0  0  0  0  0  0
    0.0407    1.8804   -1.2376 C   0  0  0  0  0  0  0  0  0  0  0  0
    0.2035    0.4126   -0.9476 C   0  0  0  0  0  0  0  0  0  0  0  0
    0.9594   -0.4369   -1.6551 C   0  0  0  0  0  0  0  0  0  0  0  0
    1.1301   -1.9029   -1.3555 C   0  0  0  0  0  0  0  0  0  0  0  0
    0.6978    4.8872    0.4557 H   0  0  0  0  0  0  0  0  0  0  0  0
    0.8691    4.5774   -1.2784 H   0  0  0  0  0  0  0  0  0  0  0  0
   -0.7275    4.5021   -0.5211 H   0  0  0  0  0  0  0  0  0  0  0  0
    0.0158    2.5030    0.8357 H   0  0  0  0  0  0  0  0  0  0  0  0
    1.6016    2.5725    0.0858 H   0  0  0  0  0  0  0  0  0  0  0  0
    0.5750    2.1365   -2.1609 H   0  0  0  0  0  0  0  0  0  0  0  0
   -1.0211    2.1026   -1.4187 H   0  0  0  0  0  0  0  0  0  0  0  0
   -0.3355    0.0334   -0.0757 H   0  0  0  0  0  0  0  0  0  0  0  0
    1.4841   -0.0574   -2.5344 H   0  0  0  0  0  0  0  0  0  0  0  0
    0.3827   -2.2553   -0.6379 H   0  0  0  0  0  0  0  0  0  0  0  0
    1.0238   -2.5038   -2.2668 H   0  0  0  0  0  0  0  0  0  0  0  0
    2.1277   -2.1164   -0.9503 H   0  0  0  0  0  0  0  0  0  0  0  0
  1  2  1  0  0  0  0
  1  7  1  0  0  0  0
  1  8  1  0  0  0  0
  1  9  1  0  0  0  0
  2  3  1  0  0  0  0
  2 10  1  0  0  0  0
  2 11  1  0  0  0  0
  3  4  1  0  0  0  0
  3 12  1  0  0  0  0
  3 13  1  0  0  0  0
  4  5  2  0  0  0  0
  4 14  1  0  0  0  0
  5  6  1  0  0  0  0
  5 15  1  0  0  0  0
  6 16  1  0  0  0  0
  6 17  1  0  0  0  0
  6 18  1  0  0  0  0
M  END
> <grid_ids>
[(-165,), (-150,), (-135,), (-120,), (-105,), (-90,), (-75,), (-60,), (-45,), (-30,), (-15,), (0,), (15,), (30,), (45,), (60,), (75,), (90,), (105,), (120,), (135,), (150,), (165,), (180,)]

$$$$
