
  -OEChem-08192616593D

 29 28  0     1  0  0  0  0  0999 V2000
    4.0119   -1.4065    2.8113 C   0  0  0  0  0  0  0  0  0  0  0  0
    2.8149   -0.5098    2.4755 C   0  0  0  0  0  0  0  0  0  0  0  0
    1.8012   -1.1851    1.5438 C   0  0  0  0  0  0  0  0  0  0  0  0
    0.5998   -0.2891    1.2147 C   0  0  0  0  0  0  0  0  0  0  0  0
   -0.3961   -0.9008    0.2106 C   0  0  1  0  0  0  0  0  0  0  0  0
    0.1877   -1.2590   -0.6503 H   0  0  0  0  0  0  0  0  0  0  0  0
   -1.1188   -2.1207    0.8058 C   0  0  0  0  0  0  0  0  0  0  0  0
   -1.4065    0.1318   -0.3576 C   0  0  0  0  0  0  0  0  0  0  0  0
   -0.7325    1.1558   -1.2843 C   0  0  0  0  0  0  0  0  0  0  0  0
   -2.2300    0.8485    0.7244 C   0  0  0  0  0  0  0  0  0  0  0  0
    4.7206   -0.8988    3.4746 H   0  0  0  0  0  0  0  0  0  0  0  0
    4.5540   -1.6974    1.9039 H   0  0  0  0  0  0  0  0  0  0  0  0
    3.6879   -2.3269    3.3112 H   0  0  0  0  0  0  0  0  0  0  0  0
    3.1714    0.4188    2.0103 H   0  0  0  0  0  0  0  0  0  0  0  0
    2.3093   -0.2109    3.4034 H   0  0  0  0  0  0  0  0  0  0  0  0
    1.4613   -2.1189    2.0085 H   0  0  0  0  0  0  0  0  0  0  0  0
    2.3047   -1.4735    0.6102 H   0  0  0  0  0  0  0  0  0  0  0  0
    0.0738   -0.0419    2.1462 H   0  0  0  0  0  0  0  0  0  0  0  0
    0.9812    0.6602    0.8193 H   0  0  0  0  0  0  0  0  0  0  0  0
   -1.8519   -2.5266    0.0996 H   0  0  0  0  0  0  0  0  0  0  0  0
   -1.6514   -1.8619    1.7280 H   0  0  0  0  0  0  0  0  0  0  0  0
   -0.4176   -2.9248    1.0484 H   0  0  0  0  0  0  0  0  0  0  0  0
   -2.1103   -0.4425   -0.9767 H   0  0  0  0  0  0  0  0  0  0  0  0
   -1.4817    1.7898   -1.7718 H   0  0  0  0  0  0  0  0  0  0  0  0
   -0.0548    1.8188   -0.7354 H   0  0  0  0  0  0  0  0  0  0  0  0
   -0.1516    0.6596   -2.0703 H   0  0  0  0  0  0  0  0  0  0  0  0
   -2.9964    1.4829    0.2653 H   0  0  0  0  0  0  0  0  0  0  0  0
   -1.5990    1.4949    1.3441 H   0  0  0  0  0  0  0  0  0  0  0  0
   -2.7409    0.1429    1.3872 H   0  0  0  0  0  0  0  0  0  0  0  0
  1  2  1  0  0  0  0
  1 11  1  0  0  0  0
  1 12  1  0  0  0  0
  1 13  1  0  0  0  0
  2  3  1  0  0  0  0
  2 14  1  0  0  0  0
  2 15  1  0  0  0  0
  3  4  1  0  0  0  0
  3 16  1  0  0  0  0
  3 17  1  0  0  0  0
  4  5  1  0  0  0  0
  4 18  1  0  0  0  0
  4 19  1  0  0  0  0
  5  6  1  0  0  0  0
  5  7  1  0  0  0  0
  5  8  1  0  0  0  0
  7 20  1  0  0  0  0
  7 21  1  0  0  0  0
  7 22  1  0  0  0  0
  8  9  1  0  0  0  0
  8 10  1  0  0  0  0
  8 23  1  0  0  0  0
  9 24  1  0  0  0  0
  9 25  1  0  0  0  0
  9 26  1  0  0  0  0
 10 27  1  0  0  0  0
 10 28  1  0  0  0  0
 10 29  1  0  0  0  0
M  END
$$$$
