
  -OEChem-08192616593D

 29 28  0     1  0  0  0  0  0999 V2000
    0.5390    1.7223    4.5601 C   0  0  0  0  0  0  0  0  0  0  0  0
    1.1005    0.9619    3.3535 C   0  0  0  0  0  0  0  0  0  0  0  0
    0.0083    0.4222    2.4220 C   0  0  0  0  0  0  0  0  0  0  0  0
    0.5799   -0.3314    1.2140 C   0  0  0  0  0  0  0  0  0  0  0  0
   -0.4584   -0.9399    0.2454 C   0  0  1  0  0  0  0  0  0  0  0  0
    0.1166   -1.3844   -0.5814 H   0  0  0  0  0  0  0  0  0  0  0  0
   -1.2347   -2.0810    0.9276 C   0  0  0  0  0  0  0  0  0  0  0  0
   -1.4068    0.1096   -0.3880 C   0  0  0  0  0  0  0  0  0  0  0  0
   -2.3445   -0.5248   -1.4288 C   0  0  0  0  0  0  0  0  0  0  0  0
   -0.6385    1.2750   -1.0319 C   0  0  0  0  0  0  0  0  0  0  0  0
    1.3397    2.0962    5.2075 H   0  0  0  0  0  0  0  0  0  0  0  0
   -0.1072    1.0775    5.1671 H   0  0  0  0  0  0  0  0  0  0  0  0
   -0.0605    2.5827    4.2402 H   0  0  0  0  0  0  0  0  0  0  0  0
    1.7229    0.1274    3.7029 H   0  0  0  0  0  0  0  0  0  0  0  0
    1.7682    1.6214    2.7831 H   0  0  0  0  0  0  0  0  0  0  0  0
   -0.6133    1.2604    2.0824 H   0  0  0  0  0  0  0  0  0  0  0  0
   -0.6560   -0.2368    2.9954 H   0  0  0  0  0  0  0  0  0  0  0  0
    1.2485    0.3393    0.6619 H   0  0  0  0  0  0  0  0  0  0  0  0
    1.2181   -1.1470    1.5802 H   0  0  0  0  0  0  0  0  0  0  0  0
   -1.7824   -2.6922    0.2051 H   0  0  0  0  0  0  0  0  0  0  0  0
   -1.9615   -1.6962    1.6521 H   0  0  0  0  0  0  0  0  0  0  0  0
   -0.5509   -2.7468    1.4662 H   0  0  0  0  0  0  0  0  0  0  0  0
   -2.0356    0.5227    0.4129 H   0  0  0  0  0  0  0  0  0  0  0  0
   -2.9735    0.2389   -1.8996 H   0  0  0  0  0  0  0  0  0  0  0  0
   -1.7693   -1.0163   -2.2238 H   0  0  0  0  0  0  0  0  0  0  0  0
   -3.0112   -1.2707   -0.9875 H   0  0  0  0  0  0  0  0  0  0  0  0
   -1.3292    1.9668   -1.5266 H   0  0  0  0  0  0  0  0  0  0  0  0
    0.0633    0.9084   -1.7917 H   0  0  0  0  0  0  0  0  0  0  0  0
   -0.0659    1.8517   -0.3000 H   0  0  0  0  0  0  0  0  0  0  0  0
  1  2  1  0  0  0  0
  1 11  1  0  0  0  0
  1 12  1  0  0  0  0
  1 13  1  0  0  0  0
  2  3  1  0  0  0  0
  2 14  1  0  0  0  0
  2 15  1  0  0  0  0
  3  4  1  0  0  0  0
  3 16  1  0  0  0  0
  3 17  1  0  0  0  0
  4  5  1  0  0  0  0
  4 18  1  0  0  0  0
  4 19  1  0  0  0  0
  5  6  1  0  0  0  0
  5  7  1  0  0  0  0
  5  8  1  0  0  0  0
  7 20  1  0  0  0  0
  7 21  1  0  0  0  0
  7 22  1  0  0  0  0
  8  9  1  0  0  0  0
  8 10  1  0  0  0  0
  8 23  1  0  0  0  0
  9 24  1  0  0  0  0
  9 25  1  0  0  0  0
  9 26  1  0  0  0  0
 10 27  1  0  0  0  0
 10 28  1  0  0  0  0
 10 29  1  0  0  0  0
M  END
$$$$
