
  -OEChem-08192616593D

 14 13  0     0  0  0  0  0  0999 V2000
    0.3893   -0.7439    0.6869 C   0  0  0  0  0  0  0  0  0  0  0  0
    2.5584    1.6428    2.9328 C   0  0  0  0  0  0  0  0  0  0  0  0
    1.6221   -0.1861    1.4071 C   0  0  0  0  0  0  0  0  0  0  0  0
    1.3254    1.0844    2.2134 C   0  0  0  0  0  0  0  0  0  0  0  0
   -0.0234   -0.0100   -0.0153 H   0  0  0  0  0  0  0  0  0  0  0  0
    0.6313   -1.6490    0.1191 H   0  0  0  0  0  0  0  0  0  0  0  0
   -0.4027   -0.9996    1.4005 H   0  0  0  0  0  0  0  0  0  0  0  0
    2.9707    0.9098    3.6362 H   0  0  0  0  0  0  0  0  0  0  0  0
    2.3168    2.5489    3.4991 H   0  0  0  0  0  0  0  0  0  0  0  0
    3.3506    1.8969    2.2189 H   0  0  0  0  0  0  0  0  0  0  0  0
    2.0326   -0.9516    2.0791 H   0  0  0  0  0  0  0  0  0  0  0  0
    2.4103    0.0289    0.6731 H   0  0  0  0  0  0  0  0  0  0  0  0
    0.9143    1.8498    1.5415 H   0  0  0  0  0  0  0  0  0  0  0  0
    0.5377    0.8693    2.9479 H   0  0  0  0  0  0  0  0  0  0  0  0
  1  3  1  0  0  0  0
  1  5  1  0  0  0  0
  1  6  1  0  0  0  0
  1  7  1  0  0  0  0
  2  4  1  0  0  0  0
  2  8  1  0  0  0  0
  2  9  1  0  0  0  0
  2 10  1  0  0  0  0
  3  4  1  0  0  0  0
  3 11  1  0  0  0  0
  3 12  1  0  0  0  0
  4 13  1  0  0  0  0
  4 14  1  0  0  0  0
M  END
$$$$
