
  -OEChem-08192616593D

  5  4  0     0  0  0  0  0  0999 V2000
   -0.0000   -0.0000   -0.0000 C   0  0  0  0  0  0  0  0  0  0  0  0
   -0.0568    1.0884   -0.0860 H   0  0  0  0  0  0  0  0  0  0  0  0
    0.6200   -0.3975   -0.8079 H   0  0  0  0  0  0  0  0  0  0  0  0
   -1.0053   -0.4241   -0.0698 H   0  0  0  0  0  0  0  0  0  0  0  0
    0.4420   -0.2669    0.9636 H   0  0  0  0  0  0  0  0  0  0  0  0
  1  2  1  0  0  0  0
  1  3  1  0  0  0  0
  1  4  1  0  0  0  0
  1  5  1  0  0  0  0
M  END
$$$$
