
  -OEChem-08192616593D

  5  4  0     0  0  0  0  0  0999 V2000
    0.0000   -0.0001    0.0000 C   0  0  0  0  0  0  0  0  0  0  0  0
    0.5324    0.7511   -0.5895 H   0  0  0  0  0  0  0  0  0  0  0  0
    0.7194   -0.5893    0.5749 H   0  0  0  0  0  0  0  0  0  0  0  0
   -0.5590   -0.6594   -0.6692 H   0  0  0  0  0  0  0  0  0  0  0  0
   -0.6927    0.4975    0.6839 H   0  0  0  0  0  0  0  0  0  0  0  0
  1  2  1  0  0  0  0
  1  3  1  0  0  0  0
  1  4  1  0  0  0  0
  1  5  1  0  0  0  0
M  END
$$$$
