
  -OEChem-08192616593D

  8  7  0     0  0  0  0  0  0999 V2000
   -0.7660    0.0183    0.0183 C   0  0  0  0  0  0  0  0  0  0  0  0
    0.7666   -0.0182   -0.0181 C   0  0  0  0  0  0  0  0  0  0  0  0
   -1.1715   -0.8392    0.5663 H   0  0  0  0  0  0  0  0  0  0  0  0
   -1.1308    0.9273    0.5089 H   0  0  0  0  0  0  0  0  0  0  0  0
   -1.1886   -0.0048   -0.9922 H   0  0  0  0  0  0  0  0  0  0  0  0
    1.1314   -0.9272   -0.5086 H   0  0  0  0  0  0  0  0  0  0  0  0
    1.1722    0.8392   -0.5662 H   0  0  0  0  0  0  0  0  0  0  0  0
    1.1892    0.0050    0.9924 H   0  0  0  0  0  0  0  0  0  0  0  0
  1  2  1  0  0  0  0
  1  3  1  0  0  0  0
  1  4  1  0  0  0  0
  1  5  1  0  0  0  0
  2  6  1  0  0  0  0
  2  7  1  0  0  0  0
  2  8  1  0  0  0  0
M  END
$$$$
