
  -OEChem-08192616593D

 11 10  0     0  0  0  0  0  0999 V2000
    1.2639   -0.2466    0.1624 C   0  0  0  0  0  0  0  0  0  0  0  0
   -1.2475   -0.1972   -0.2966 C   0  0  0  0  0  0  0  0  0  0  0  0
   -0.0194    0.5926    0.1713 C   0  0  0  0  0  0  0  0  0  0  0  0
    1.1694   -1.1175    0.8218 H   0  0  0  0  0  0  0  0  0  0  0  0
    1.4844   -0.6183   -0.8453 H   0  0  0  0  0  0  0  0  0  0  0  0
    2.1280    0.3360    0.5001 H   0  0  0  0  0  0  0  0  0  0  0  0
   -1.1110   -0.5680   -1.3194 H   0  0  0  0  0  0  0  0  0  0  0  0
   -1.4260   -1.0660    0.3480 H   0  0  0  0  0  0  0  0  0  0  0  0
   -2.1523    0.4204   -0.2831 H   0  0  0  0  0  0  0  0  0  0  0  0
   -0.1968    0.9772    1.1835 H   0  0  0  0  0  0  0  0  0  0  0  0
    0.1153    1.4723   -0.4708 H   0  0  0  0  0  0  0  0  0  0  0  0
  1  3  1  0  0  0  0
  1  4  1  0  0  0  0
  1  5  1  0  0  0  0
  1  6  1  0  0  0  0
  2  3  1  0  0  0  0
  2  7  1  0  0  0  0
  2  8  1  0  0  0  0
  2  9  1  0  0  0  0
  3 10  1  0  0  0  0
  3 11  1  0  0  0  0
M  END
$$$$
