
  -OEChem-08192616593D

 23 22  0     0  0  0  0  0  0999 V2000
   -3.6883    0.5197   -0.0196 C   0  0  0  0  0  0  0  0  0  0  0  0
    3.2968    0.5071    0.1172 C   0  0  0  0  0  0  0  0  0  0  0  0
   -2.2685    0.6988    0.5300 C   0  0  0  0  0  0  0  0  0  0  0  0
    2.6275   -0.8653    0.2684 C   0  0  0  0  0  0  0  0  0  0  0  0
   -1.2393   -0.2062   -0.1575 C   0  0  0  0  0  0  0  0  0  0  0  0
    1.2072   -0.9409   -0.3129 C   0  0  0  0  0  0  0  0  0  0  0  0
    0.1837   -0.0375    0.3869 C   0  0  0  0  0  0  0  0  0  0  0  0
   -4.0344   -0.5124    0.1098 H   0  0  0  0  0  0  0  0  0  0  0  0
   -4.4019    1.1769    0.4895 H   0  0  0  0  0  0  0  0  0  0  0  0
   -3.7288    0.7494   -1.0908 H   0  0  0  0  0  0  0  0  0  0  0  0
    4.3293    0.4849    0.4826 H   0  0  0  0  0  0  0  0  0  0  0  0
    3.3222    0.8173   -0.9345 H   0  0  0  0  0  0  0  0  0  0  0  0
    2.7665    1.2829    0.6787 H   0  0  0  0  0  0  0  0  0  0  0  0
   -2.2648    0.4956    1.6091 H   0  0  0  0  0  0  0  0  0  0  0  0
   -1.9612    1.7469    0.4164 H   0  0  0  0  0  0  0  0  0  0  0  0
    2.5978   -1.1415    1.3310 H   0  0  0  0  0  0  0  0  0  0  0  0
    3.2504   -1.6215   -0.2259 H   0  0  0  0  0  0  0  0  0  0  0  0
   -1.5491   -1.2550   -0.0476 H   0  0  0  0  0  0  0  0  0  0  0  0
   -1.2417   -0.0014   -1.2373 H   0  0  0  0  0  0  0  0  0  0  0  0
    0.8570   -1.9803   -0.2569 H   0  0  0  0  0  0  0  0  0  0  0  0
    1.2407   -0.6884   -1.3822 H   0  0  0  0  0  0  0  0  0  0  0  0
    0.4811    1.0137    0.2858 H   0  0  0  0  0  0  0  0  0  0  0  0
    0.1883   -0.2541    1.4647 H   0  0  0  0  0  0  0  0  0  0  0  0
  1  3  1  0  0  0  0
  1  8  1  0  0  0  0
  1  9  1  0  0  0  0
  1 10  1  0  0  0  0
  2  4  1  0  0  0  0
  2 11  1  0  0  0  0
  2 12  1  0  0  0  0
  2 13  1  0  0  0  0
  3  5  1  0  0  0  0
  3 14  1  0  0  0  0
  3 15  1  0  0  0  0
  4  6  1  0  0  0  0
  4 16  1  0  0  0  0
  4 17  1  0  0  0  0
  5  7  1  0  0  0  0
  5 18  1  0  0  0  0
  5 19  1  0  0  0  0
  6  7  1  0  0  0  0
  6 20  1  0  0  0  0
  6 21  1  0  0  0  0
  7 22  1  0  0  0  0
  7 23  1  0  0  0  0
M  END
$$$$
