
  -OEChem-08192616593D

 26 25  0     0  0  0  0  0  0999 V2000
   -7.7949    5.7851    2.3415 C   0  0  0  0  0  0  0  0  0  0  0  0
   -6.3737   -1.0748    1.9994 C   0  0  0  0  0  0  0  0  0  0  0  0
   -4.9069    0.9735    1.8550 C   0  0  0  0  0  0  0  0  0  0  0  0
   -8.9400    4.8341    1.9689 C   0  0  0  0  0  0  0  0  0  0  0  0
   -8.7392    3.3875    2.4464 C   0  0  0  0  0  0  0  0  0  0  0  0
   -7.5445    2.6670    1.8081 C   0  0  0  0  0  0  0  0  0  0  0  0
   -7.4177    1.2093    2.2674 C   0  0  0  0  0  0  0  0  0  0  0  0
   -6.3047    0.4002    1.5773 C   0  0  0  0  0  0  0  0  0  0  0  0
   -8.0253    6.8145    2.0459 H   0  0  0  0  0  0  0  0  0  0  0  0
   -6.8566    5.5055    1.8518 H   0  0  0  0  0  0  0  0  0  0  0  0
   -7.6183    5.7810    3.4239 H   0  0  0  0  0  0  0  0  0  0  0  0
   -5.6114   -1.6723    1.4866 H   0  0  0  0  0  0  0  0  0  0  0  0
   -7.3529   -1.5103    1.7704 H   0  0  0  0  0  0  0  0  0  0  0  0
   -6.2070   -1.1792    3.0788 H   0  0  0  0  0  0  0  0  0  0  0  0
   -4.7972    1.9933    1.4740 H   0  0  0  0  0  0  0  0  0  0  0  0
   -4.1310    0.3599    1.3836 H   0  0  0  0  0  0  0  0  0  0  0  0
   -4.7042    0.9950    2.9334 H   0  0  0  0  0  0  0  0  0  0  0  0
   -9.8747    5.2184    2.3964 H   0  0  0  0  0  0  0  0  0  0  0  0
   -9.0783    4.8388    0.8793 H   0  0  0  0  0  0  0  0  0  0  0  0
   -9.6521    2.8149    2.2346 H   0  0  0  0  0  0  0  0  0  0  0  0
   -8.6229    3.3811    3.5395 H   0  0  0  0  0  0  0  0  0  0  0  0
   -6.6223    3.2091    2.0423 H   0  0  0  0  0  0  0  0  0  0  0  0
   -7.6492    2.6950    0.7138 H   0  0  0  0  0  0  0  0  0  0  0  0
   -8.3764    0.7013    2.0947 H   0  0  0  0  0  0  0  0  0  0  0  0
   -7.2536    1.1843    3.3547 H   0  0  0  0  0  0  0  0  0  0  0  0
   -6.4806    0.4489    0.4927 H   0  0  0  0  0  0  0  0  0  0  0  0
  1  4  1  0  0  0  0
  1  9  1  0  0  0  0
  1 10  1  0  0  0  0
  1 11  1  0  0  0  0
  2  8  1  0  0  0  0
  2 12  1  0  0  0  0
  2 13  1  0  0  0  0
  2 14  1  0  0  0  0
  3  8  1  0  0  0  0
  3 15  1  0  0  0  0
  3 16  1  0  0  0  0
  3 17  1  0  0  0  0
  4  5  1  0  0  0  0
  4 18  1  0  0  0  0
  4 19  1  0  0  0  0
  5  6  1  0  0  0  0
  5 20  1  0  0  0  0
  5 21  1  0  0  0  0
  6  7  1  0  0  0  0
  6 22  1  0  0  0  0
  6 23  1  0  0  0  0
  7  8  1  0  0  0  0
  7 24  1  0  0  0  0
  7 25  1  0  0  0  0
  8 26  1  0  0  0  0
M  END
$$$$
