
  -OEChem-08192616593D

 26 25  0     0  0  0  0  0  0999 V2000
    3.1341    0.8964   -0.3034 C   0  0  0  0  0  0  0  0  0  0  0  0
   -2.2762    0.7278   -0.9837 C   0  0  0  0  0  0  0  0  0  0  0  0
   -1.8456   -1.4876    0.1015 C   0  0  0  0  0  0  0  0  0  0  0  0
   -1.5374    0.6393    1.4087 C   0  0  0  0  0  0  0  0  0  0  0  0
    2.5647   -0.5247   -0.2007 C   0  0  0  0  0  0  0  0  0  0  0  0
    1.1505   -0.5979    0.3989 C   0  0  0  0  0  0  0  0  0  0  0  0
    0.0802    0.0765   -0.4698 C   0  0  0  0  0  0  0  0  0  0  0  0
   -1.3842   -0.0202    0.0255 C   0  0  0  0  0  0  0  0  0  0  0  0
    3.1293    1.3919    0.6750 H   0  0  0  0  0  0  0  0  0  0  0  0
    2.5563    1.5196   -0.9933 H   0  0  0  0  0  0  0  0  0  0  0  0
    4.1686    0.8810   -0.6636 H   0  0  0  0  0  0  0  0  0  0  0  0
   -2.2006    0.2835   -1.9831 H   0  0  0  0  0  0  0  0  0  0  0  0
   -3.3292    0.6935   -0.6808 H   0  0  0  0  0  0  0  0  0  0  0  0
   -1.9849    1.7818   -1.0632 H   0  0  0  0  0  0  0  0  0  0  0  0
   -2.9081   -1.5454    0.3646 H   0  0  0  0  0  0  0  0  0  0  0  0
   -1.7122   -1.9934   -0.8622 H   0  0  0  0  0  0  0  0  0  0  0  0
   -1.2902   -2.0520    0.8571 H   0  0  0  0  0  0  0  0  0  0  0  0
   -1.1853    1.6777    1.3917 H   0  0  0  0  0  0  0  0  0  0  0  0
   -2.5887    0.6482    1.7192 H   0  0  0  0  0  0  0  0  0  0  0  0
   -0.9719    0.1054    2.1789 H   0  0  0  0  0  0  0  0  0  0  0  0
    3.2380   -1.1326    0.4167 H   0  0  0  0  0  0  0  0  0  0  0  0
    2.5602   -0.9895   -1.1959 H   0  0  0  0  0  0  0  0  0  0  0  0
    0.8927   -1.6531    0.5466 H   0  0  0  0  0  0  0  0  0  0  0  0
    1.1669   -0.1408    1.3964 H   0  0  0  0  0  0  0  0  0  0  0  0
    0.1299   -0.3544   -1.4802 H   0  0  0  0  0  0  0  0  0  0  0  0
    0.3251    1.1401   -0.5826 H   0  0  0  0  0  0  0  0  0  0  0  0
  1  5  1  0  0  0  0
  1  9  1  0  0  0  0
  1 10  1  0  0  0  0
  1 11  1  0  0  0  0
  2  8  1  0  0  0  0
  2 12  1  0  0  0  0
  2 13  1  0  0  0  0
  2 14  1  0  0  0  0
  3  8  1  0  0  0  0
  3 15  1  0  0  0  0
  3 16  1  0  0  0  0
  3 17  1  0  0  0  0
  4  8  1  0  0  0  0
  4 18  1  0  0  0  0
  4 19  1  0  0  0  0
  4 20  1  0  0  0  0
  5  6  1  0  0  0  0
  5 21  1  0  0  0  0
  5 22  1  0  0  0  0
  6  7  1  0  0  0  0
  6 23  1  0  0  0  0
  6 24  1  0  0  0  0
  7  8  1  0  0  0  0
  7 25  1  0  0  0  0
  7 26  1  0  0  0  0
M  END
$$$$
