
  -OEChem-08192616593D

 29 28  0     0  0  0  0  0  0999 V2000
    7.7977   -2.0189    3.6316 C   0  0  0  0  0  0  0  0  0  0  0  0
    3.2019    1.2330    3.5561 C   0  0  0  0  0  0  0  0  0  0  0  0
    2.6279   -1.0431    2.6782 C   0  0  0  0  0  0  0  0  0  0  0  0
    2.2701   -0.5211    5.1002 C   0  0  0  0  0  0  0  0  0  0  0  0
    7.7926   -0.7531    4.5012 C   0  0  0  0  0  0  0  0  0  0  0  0
    6.7472   -0.7536    5.6380 C   0  0  0  0  0  0  0  0  0  0  0  0
    5.3939   -0.1051    5.2972 C   0  0  0  0  0  0  0  0  0  0  0  0
    4.6215   -0.7880    4.1611 C   0  0  0  0  0  0  0  0  0  0  0  0
    3.1870   -0.2707    3.8883 C   0  0  0  0  0  0  0  0  0  0  0  0
    8.5669   -1.9590    2.8532 H   0  0  0  0  0  0  0  0  0  0  0  0
    6.8365   -2.1845    3.1376 H   0  0  0  0  0  0  0  0  0  0  0  0
    8.0109   -2.9052    4.2406 H   0  0  0  0  0  0  0  0  0  0  0  0
    2.2008    1.5766    3.2710 H   0  0  0  0  0  0  0  0  0  0  0  0
    3.5252    1.8350    4.4112 H   0  0  0  0  0  0  0  0  0  0  0  0
    3.8787    1.4456    2.7199 H   0  0  0  0  0  0  0  0  0  0  0  0
    1.6056   -0.7241    2.4441 H   0  0  0  0  0  0  0  0  0  0  0  0
    3.2427   -0.8781    1.7856 H   0  0  0  0  0  0  0  0  0  0  0  0
    2.6053   -2.1215    2.8742 H   0  0  0  0  0  0  0  0  0  0  0  0
    2.2610   -1.5826    5.3746 H   0  0  0  0  0  0  0  0  0  0  0  0
    2.5867    0.0503    5.9784 H   0  0  0  0  0  0  0  0  0  0  0  0
    1.2392   -0.2265    4.8723 H   0  0  0  0  0  0  0  0  0  0  0  0
    7.6390    0.1308    3.8677 H   0  0  0  0  0  0  0  0  0  0  0  0
    8.7925   -0.6370    4.9365 H   0  0  0  0  0  0  0  0  0  0  0  0
    6.5821   -1.7852    5.9786 H   0  0  0  0  0  0  0  0  0  0  0  0
    7.1601   -0.2155    6.5000 H   0  0  0  0  0  0  0  0  0  0  0  0
    4.7827   -0.1022    6.2076 H   0  0  0  0  0  0  0  0  0  0  0  0
    5.5690    0.9475    5.0424 H   0  0  0  0  0  0  0  0  0  0  0  0
    5.1938   -0.6890    3.2306 H   0  0  0  0  0  0  0  0  0  0  0  0
    4.5635   -1.8655    4.3697 H   0  0  0  0  0  0  0  0  0  0  0  0
  1  5  1  0  0  0  0
  1 10  1  0  0  0  0
  1 11  1  0  0  0  0
  1 12  1  0  0  0  0
  2  9  1  0  0  0  0
  2 13  1  0  0  0  0
  2 14  1  0  0  0  0
  2 15  1  0  0  0  0
  3  9  1  0  0  0  0
  3 16  1  0  0  0  0
  3 17  1  0  0  0  0
  3 18  1  0  0  0  0
  4  9  1  0  0  0  0
  4 19  1  0  0  0  0
  4 20  1  0  0  0  0
  4 21  1  0  0  0  0
  5  6  1  0  0  0  0
  5 22  1  0  0  0  0
  5 23  1  0  0  0  0
  6  7  1  0  0  0  0
  6 24  1  0  0  0  0
  6 25  1  0  0  0  0
  7  8  1  0  0  0  0
  7 26  1  0  0  0  0
  7 27  1  0  0  0  0
  8  9  1  0  0  0  0
  8 28  1  0  0  0  0
  8 29  1  0  0  0  0
M  END
$$$$
