
  -OEChem-08192616593D

 14 13  0     0  0  0  0  0  0999 V2000
    1.9628    0.0563    0.2371 C   0  0  0  0  0  0  0  0  0  0  0  0
   -1.9628   -0.0564    0.0891 C   0  0  0  0  0  0  0  0  0  0  0  0
    0.5492    0.1688   -0.3449 C   0  0  0  0  0  0  0  0  0  0  0  0
   -0.5492   -0.1695    0.6708 C   0  0  0  0  0  0  0  0  0  0  0  0
    2.1625   -0.9605    0.5952 H   0  0  0  0  0  0  0  0  0  0  0  0
    2.7254    0.3024   -0.5099 H   0  0  0  0  0  0  0  0  0  0  0  0
    2.0955    0.7371    1.0862 H   0  0  0  0  0  0  0  0  0  0  0  0
   -2.1630    0.9610   -0.2669 H   0  0  0  0  0  0  0  0  0  0  0  0
   -2.0954   -0.7356   -0.7612 H   0  0  0  0  0  0  0  0  0  0  0  0
   -2.7252   -0.3042    0.8358 H   0  0  0  0  0  0  0  0  0  0  0  0
    0.4551   -0.4978   -1.2127 H   0  0  0  0  0  0  0  0  0  0  0  0
    0.3881    1.1868   -0.7241 H   0  0  0  0  0  0  0  0  0  0  0  0
   -0.4548    0.4967    1.5388 H   0  0  0  0  0  0  0  0  0  0  0  0
   -0.3883   -1.1877    1.0497 H   0  0  0  0  0  0  0  0  0  0  0  0
  1  3  1  0  0  0  0
  1  5  1  0  0  0  0
  1  6  1  0  0  0  0
  1  7  1  0  0  0  0
  2  4  1  0  0  0  0
  2  8  1  0  0  0  0
  2  9  1  0  0  0  0
  2 10  1  0  0  0  0
  3  4  1  0  0  0  0
  3 11  1  0  0  0  0
  3 12  1  0  0  0  0
  4 13  1  0  0  0  0
  4 14  1  0  0  0  0
M  END
$$$$
