
  -OEChem-08192616593D

 20 19  0     0  0  0  0  0  0999 V2000
   -3.2253   -0.0779    0.0141 C   0  0  0  0  0  0  0  0  0  0  0  0
    3.2229    0.0770   -0.2446 C   0  0  0  0  0  0  0  0  0  0  0  0
   -1.8564    0.5944    0.1685 C   0  0  0  0  0  0  0  0  0  0  0  0
    1.8541   -0.5958   -0.3978 C   0  0  0  0  0  0  0  0  0  0  0  0
   -0.6882   -0.3314   -0.1915 C   0  0  0  0  0  0  0  0  0  0  0  0
    0.6857    0.3311   -0.0413 C   0  0  0  0  0  0  0  0  0  0  0  0
   -3.3073   -0.9596    0.6604 H   0  0  0  0  0  0  0  0  0  0  0  0
   -4.0404    0.6053    0.2772 H   0  0  0  0  0  0  0  0  0  0  0  0
   -3.3880   -0.4094   -1.0182 H   0  0  0  0  0  0  0  0  0  0  0  0
    3.3850    0.4117    0.7867 H   0  0  0  0  0  0  0  0  0  0  0  0
    3.3052    0.9567   -0.8936 H   0  0  0  0  0  0  0  0  0  0  0  0
    4.0381   -0.6069   -0.5052 H   0  0  0  0  0  0  0  0  0  0  0  0
   -1.7345    0.9447    1.2021 H   0  0  0  0  0  0  0  0  0  0  0  0
   -1.8149    1.4911   -0.4639 H   0  0  0  0  0  0  0  0  0  0  0  0
    1.8122   -1.4906    0.2373 H   0  0  0  0  0  0  0  0  0  0  0  0
    1.7328   -0.9492   -1.4304 H   0  0  0  0  0  0  0  0  0  0  0  0
   -0.7300   -1.2291    0.4411 H   0  0  0  0  0  0  0  0  0  0  0  0
   -0.8110   -0.6831   -1.2255 H   0  0  0  0  0  0  0  0  0  0  0  0
    0.7284    1.2272   -0.6762 H   0  0  0  0  0  0  0  0  0  0  0  0
    0.8074    0.6854    0.9919 H   0  0  0  0  0  0  0  0  0  0  0  0
  1  3  1  0  0  0  0
  1  7  1  0  0  0  0
  1  8  1  0  0  0  0
  1  9  1  0  0  0  0
  2  4  1  0  0  0  0
  2 10  1  0  0  0  0
  2 11  1  0  0  0  0
  2 12  1  0  0  0  0
  3  5  1  0  0  0  0
  3 13  1  0  0  0  0
  3 14  1  0  0  0  0
  4  6  1  0  0  0  0
  4 15  1  0  0  0  0
  4 16  1  0  0  0  0
  5  6  1  0  0  0  0
  5 17  1  0  0  0  0
  5 18  1  0  0  0  0
  6 19  1  0  0  0  0
  6 20  1  0  0  0  0
M  END
$$$$
