
  -OEChem-08192616593D

 23 22  0     0  0  0  0  0  0999 V2000
    4.7777   -3.6834    0.6832 C   0  0  0  0  0  0  0  0  0  0  0  0
   10.1584   -2.5620   -0.0008 C   0  0  0  0  0  0  0  0  0  0  0  0
   11.1038   -4.8257    0.5900 C   0  0  0  0  0  0  0  0  0  0  0  0
    6.0422   -4.5046    0.4070 C   0  0  0  0  0  0  0  0  0  0  0  0
    7.3353   -3.7300    0.6911 C   0  0  0  0  0  0  0  0  0  0  0  0
    8.6003   -4.5467    0.4015 C   0  0  0  0  0  0  0  0  0  0  0  0
    9.9245   -3.8613    0.7844 C   0  0  0  0  0  0  0  0  0  0  0  0
    3.8703   -4.2607    0.4745 H   0  0  0  0  0  0  0  0  0  0  0  0
    4.7493   -2.7809    0.0614 H   0  0  0  0  0  0  0  0  0  0  0  0
    4.7360   -3.3635    1.7310 H   0  0  0  0  0  0  0  0  0  0  0  0
   11.1217   -2.1120    0.2643 H   0  0  0  0  0  0  0  0  0  0  0  0
   10.1691   -2.7585   -1.0805 H   0  0  0  0  0  0  0  0  0  0  0  0
    9.3813   -1.8171    0.1956 H   0  0  0  0  0  0  0  0  0  0  0  0
   11.2031   -5.1121   -0.4645 H   0  0  0  0  0  0  0  0  0  0  0  0
   12.0494   -4.3664    0.8995 H   0  0  0  0  0  0  0  0  0  0  0  0
   10.9692   -5.7439    1.1729 H   0  0  0  0  0  0  0  0  0  0  0  0
    6.0261   -5.4184    1.0157 H   0  0  0  0  0  0  0  0  0  0  0  0
    6.0427   -4.8360   -0.6399 H   0  0  0  0  0  0  0  0  0  0  0  0
    7.3353   -2.8105    0.0928 H   0  0  0  0  0  0  0  0  0  0  0  0
    7.3418   -3.4108    1.7431 H   0  0  0  0  0  0  0  0  0  0  0  0
    8.6294   -4.8050   -0.6672 H   0  0  0  0  0  0  0  0  0  0  0  0
    8.5331   -5.5011    0.9417 H   0  0  0  0  0  0  0  0  0  0  0  0
    9.8709   -3.6057    1.8527 H   0  0  0  0  0  0  0  0  0  0  0  0
  1  4  1  0  0  0  0
  1  8  1  0  0  0  0
  1  9  1  0  0  0  0
  1 10  1  0  0  0  0
  2  7  1  0  0  0  0
  2 11  1  0  0  0  0
  2 12  1  0  0  0  0
  2 13  1  0  0  0  0
  3  7  1  0  0  0  0
  3 14  1  0  0  0  0
  3 15  1  0  0  0  0
  3 16  1  0  0  0  0
  4  5  1  0  0  0  0
  4 17  1  0  0  0  0
  4 18  1  0  0  0  0
  5  6  1  0  0  0  0
  5 19  1  0  0  0  0
  5 20  1  0  0  0  0
  6  7  1  0  0  0  0
  6 21  1  0  0  0  0
  6 22  1  0  0  0  0
  7 23  1  0  0  0  0
M  END
$$$$
