
  -OEChem-08192616593D

 23 22  0     1  0  0  0  0  0999 V2000
   -2.9359   -0.8104    0.2143 C   0  0  0  0  0  0  0  0  0  0  0  0
    1.9317   -1.5187    0.2142 C   0  0  0  0  0  0  0  0  0  0  0  0
   -1.4116   -0.7868    0.3791 C   0  0  0  0  0  0  0  0  0  0  0  0
    1.1046    2.2202    0.1170 C   0  0  0  0  0  0  0  0  0  0  0  0
    1.5612   -0.2030   -0.4844 C   0  0  0  0  0  0  0  0  0  0  0  0
   -0.8174    0.6015    0.1130 C   0  0  0  0  0  0  0  0  0  0  0  0
    0.6946    0.7597    0.3645 C   0  0  2  0  0  0  0  0  0  0  0  0
   -3.3440   -1.8101    0.3990 H   0  0  0  0  0  0  0  0  0  0  0  0
   -3.4198   -0.1174    0.9125 H   0  0  0  0  0  0  0  0  0  0  0  0
   -3.2272   -0.5133   -0.8001 H   0  0  0  0  0  0  0  0  0  0  0  0
    2.5123   -1.3221    1.1232 H   0  0  0  0  0  0  0  0  0  0  0  0
    2.5428   -2.1526   -0.4383 H   0  0  0  0  0  0  0  0  0  0  0  0
    1.0498   -2.0947    0.5071 H   0  0  0  0  0  0  0  0  0  0  0  0
   -1.1479   -1.1093    1.3950 H   0  0  0  0  0  0  0  0  0  0  0  0
   -0.9671   -1.5208   -0.3028 H   0  0  0  0  0  0  0  0  0  0  0  0
    0.4999    2.9134    0.7128 H   0  0  0  0  0  0  0  0  0  0  0  0
    2.1570    2.3859    0.3734 H   0  0  0  0  0  0  0  0  0  0  0  0
    0.9737    2.4880   -0.9389 H   0  0  0  0  0  0  0  0  0  0  0  0
    2.4925    0.3061   -0.7615 H   0  0  0  0  0  0  0  0  0  0  0  0
    1.0464   -0.4155   -1.4311 H   0  0  0  0  0  0  0  0  0  0  0  0
   -1.3490    1.3319    0.7386 H   0  0  0  0  0  0  0  0  0  0  0  0
   -1.0302    0.8860   -0.9280 H   0  0  0  0  0  0  0  0  0  0  0  0
    0.8830    0.5368    1.4250 H   0  0  0  0  0  0  0  0  0  0  0  0
  1  3  1  0  0  0  0
  1  8  1  0  0  0  0
  1  9  1  0  0  0  0
  1 10  1  0  0  0  0
  2  5  1  0  0  0  0
  2 11  1  0  0  0  0
  2 12  1  0  0  0  0
  2 13  1  0  0  0  0
  3  6  1  0  0  0  0
  3 14  1  0  0  0  0
  3 15  1  0  0  0  0
  4  7  1  0  0  0  0
  4 16  1  0  0  0  0
  4 17  1  0  0  0  0
  4 18  1  0  0  0  0
  5  7  1  0  0  0  0
  5 19  1  0  0  0  0
  5 20  1  0  0  0  0
  6  7  1  0  0  0  0
  6 21  1  0  0  0  0
  6 22  1  0  0  0  0
  7 23  1  0  0  0  0
M  END
$$$$
