
  -OEChem-08192616593D

 17 16  0     0  0  0  0  0  0999 V2000
    2.5637   -0.0602    0.0726 C   0  0  0  0  0  0  0  0  0  0  0  0
   -2.4776    0.6568   -0.4210 C   0  0  0  0  0  0  0  0  0  0  0  0
    1.1976   -0.7191   -0.1500 C   0  0  0  0  0  0  0  0  0  0  0  0
   -1.3302   -0.3595   -0.3977 C   0  0  0  0  0  0  0  0  0  0  0  0
    0.0417    0.2879   -0.1755 C   0  0  0  0  0  0  0  0  0  0  0  0
    2.5908    0.4797    1.0264 H   0  0  0  0  0  0  0  0  0  0  0  0
    2.7879    0.6617   -0.7214 H   0  0  0  0  0  0  0  0  0  0  0  0
    3.3699   -0.8019    0.0862 H   0  0  0  0  0  0  0  0  0  0  0  0
   -2.3383    1.3911   -1.2231 H   0  0  0  0  0  0  0  0  0  0  0  0
   -2.5355    1.2085    0.5247 H   0  0  0  0  0  0  0  0  0  0  0  0
   -3.4445    0.1673   -0.5812 H   0  0  0  0  0  0  0  0  0  0  0  0
    1.2102   -1.2787   -1.0948 H   0  0  0  0  0  0  0  0  0  0  0  0
    1.0146   -1.4594    0.6401 H   0  0  0  0  0  0  0  0  0  0  0  0
   -1.3170   -0.9190   -1.3426 H   0  0  0  0  0  0  0  0  0  0  0  0
   -1.5126   -1.1001    0.3924 H   0  0  0  0  0  0  0  0  0  0  0  0
    0.2247    1.0297   -0.9658 H   0  0  0  0  0  0  0  0  0  0  0  0
    0.0289    0.8490    0.7696 H   0  0  0  0  0  0  0  0  0  0  0  0
  1  3  1  0  0  0  0
  1  6  1  0  0  0  0
  1  7  1  0  0  0  0
  1  8  1  0  0  0  0
  2  4  1  0  0  0  0
  2  9  1  0  0  0  0
  2 10  1  0  0  0  0
  2 11  1  0  0  0  0
  3  5  1  0  0  0  0
  3 12  1  0  0  0  0
  3 13  1  0  0  0  0
  4  5  1  0  0  0  0
  4 14  1  0  0  0  0
  4 15  1  0  0  0  0
  5 16  1  0  0  0  0
  5 17  1  0  0  0  0
M  END
$$$$
