
  -OEChem-08192616593D

 15 14  0     0  0  0  0  0  0999 V2000
    0.1061    2.4658    1.7779 C   0  0  0  0  0  0  0  0  0  0  0  0
    1.2307    1.7418    1.0171 C   0  0  0  0  0  0  0  0  0  0  0  0
    0.9299    0.2836    0.7917 C   0  0  0  0  0  0  0  0  0  0  0  0
    1.6513   -0.7385    1.2696 C   0  0  0  0  0  0  0  0  0  0  0  0
    1.3395   -2.1961    1.0543 C   0  0  0  0  0  0  0  0  0  0  0  0
    0.3354    3.5298    1.9028 H   0  0  0  0  0  0  0  0  0  0  0  0
   -0.0369    2.0270    2.7709 H   0  0  0  0  0  0  0  0  0  0  0  0
   -0.8459    2.3898    1.2402 H   0  0  0  0  0  0  0  0  0  0  0  0
    1.3774    2.2373    0.0473 H   0  0  0  0  0  0  0  0  0  0  0  0
    2.1744    1.8417    1.5658 H   0  0  0  0  0  0  0  0  0  0  0  0
    0.0349    0.0649    0.2034 H   0  0  0  0  0  0  0  0  0  0  0  0
    2.5523   -0.5151    1.8445 H   0  0  0  0  0  0  0  0  0  0  0  0
    0.5928   -2.3342    0.2662 H   0  0  0  0  0  0  0  0  0  0  0  0
    0.9653   -2.6664    1.9728 H   0  0  0  0  0  0  0  0  0  0  0  0
    2.2392   -2.7495    0.7593 H   0  0  0  0  0  0  0  0  0  0  0  0
  1  2  1  0  0  0  0
  1  6  1  0  0  0  0
  1  7  1  0  0  0  0
  1  8  1  0  0  0  0
  2  3  1  0  0  0  0
  2  9  1  0  0  0  0
  2 10  1  0  0  0  0
  3  4  2  0  0  0  0
  3 11  1  0  0  0  0
  4  5  1  0  0  0  0
  4 12  1  0  0  0  0
  5 13  1  0  0  0  0
  5 14  1  0  0  0  0
  5 15  1  0  0  0  0
M  END
> <grid_ids>
[(-165,), (-150,), (-135,), (-120,), (-105,), (-90,), (-75,), (-60,), (-45,), (-30,), (-15,), (0,), (15,), (30,), (45,), (60,), (75,), (90,), (105,), (120,), (135,), (150,), (165,), (180,)]

$$$$
