
  -OEChem-08192616593D

 18 17  0     0  0  0  0  0  0999 V2000
   -2.6590    0.5753   -0.2885 C   0  0  0  0  0  0  0  0  0  0  0  0
   -1.4188   -0.0240    0.3834 C   0  0  0  0  0  0  0  0  0  0  0  0
   -0.2380   -0.2053   -0.5913 C   0  0  0  0  0  0  0  0  0  0  0  0
    0.8342   -1.1076   -0.0396 C   0  0  0  0  0  0  0  0  0  0  0  0
    2.0881   -0.7813    0.3097 C   0  0  0  0  0  0  0  0  0  0  0  0
    2.7433    0.5715    0.2213 C   0  0  0  0  0  0  0  0  0  0  0  0
   -2.4386    1.5535   -0.7322 H   0  0  0  0  0  0  0  0  0  0  0  0
   -3.0232   -0.0767   -1.0908 H   0  0  0  0  0  0  0  0  0  0  0  0
   -3.4757    0.7120    0.4287 H   0  0  0  0  0  0  0  0  0  0  0  0
   -1.0973    0.6026    1.2240 H   0  0  0  0  0  0  0  0  0  0  0  0
   -1.6794   -0.9995    0.8139 H   0  0  0  0  0  0  0  0  0  0  0  0
    0.1631    0.7743   -0.8690 H   0  0  0  0  0  0  0  0  0  0  0  0
   -0.6229   -0.6527   -1.5191 H   0  0  0  0  0  0  0  0  0  0  0  0
    0.5274   -2.1447    0.1068 H   0  0  0  0  0  0  0  0  0  0  0  0
    2.7211   -1.5769    0.7047 H   0  0  0  0  0  0  0  0  0  0  0  0
    2.0661    1.3479   -0.1417 H   0  0  0  0  0  0  0  0  0  0  0  0
    3.6113    0.5407   -0.4494 H   0  0  0  0  0  0  0  0  0  0  0  0
    3.1165    0.8842    1.2045 H   0  0  0  0  0  0  0  0  0  0  0  0
  1  2  1  0  0  0  0
  1  7  1  0  0  0  0
  1  8  1  0  0  0  0
  1  9  1  0  0  0  0
  2  3  1  0  0  0  0
  2 10  1  0  0  0  0
  2 11  1  0  0  0  0
  3  4  1  0  0  0  0
  3 12  1  0  0  0  0
  3 13  1  0  0  0  0
  4  5  2  0  0  0  0
  4 14  1  0  0  0  0
  5  6  1  0  0  0  0
  5 15  1  0  0  0  0
  6 16  1  0  0  0  0
  6 17  1  0  0  0  0
  6 18  1  0  0  0  0
M  END
> <grid_ids>
[(-165,), (-150,), (-135,), (-120,), (-105,), (-90,), (-75,), (-60,), (-45,), (-30,), (-15,), (0,), (15,), (30,), (45,), (60,), (75,), (90,), (105,), (120,), (135,), (150,), (165,), (180,)]

$$$$
