
  -OEChem-08192616593D

 15 14  0     0  0  0  0  0  0999 V2000
    4.1756   -4.0916   -0.0152 C   0  0  0  0  0  0  0  0  0  0  0  0
    3.3022   -2.9764   -0.5982 C   0  0  0  0  0  0  0  0  0  0  0  0
    2.1221   -2.6061    0.3105 C   0  0  0  0  0  0  0  0  0  0  0  0
    1.2439   -1.5152   -0.2626 C   0  0  0  0  0  0  0  0  0  0  0  0
    0.3354   -0.8126    0.4232 C   0  0  0  0  0  0  0  0  0  0  0  0
    5.0057   -4.3408   -0.6848 H   0  0  0  0  0  0  0  0  0  0  0  0
    3.5924   -5.0054    0.1483 H   0  0  0  0  0  0  0  0  0  0  0  0
    4.6029   -3.7954    0.9499 H   0  0  0  0  0  0  0  0  0  0  0  0
    3.9151   -2.0838   -0.7787 H   0  0  0  0  0  0  0  0  0  0  0  0
    2.9153   -3.2862   -1.5777 H   0  0  0  0  0  0  0  0  0  0  0  0
    2.4893   -2.3082    1.3005 H   0  0  0  0  0  0  0  0  0  0  0  0
    1.5126   -3.5065    0.4728 H   0  0  0  0  0  0  0  0  0  0  0  0
    1.3439   -1.3310   -1.3339 H   0  0  0  0  0  0  0  0  0  0  0  0
   -0.2861   -0.0626   -0.0598 H   0  0  0  0  0  0  0  0  0  0  0  0
    0.1871   -0.9579    1.4926 H   0  0  0  0  0  0  0  0  0  0  0  0
  1  2  1  0  0  0  0
  1  6  1  0  0  0  0
  1  7  1  0  0  0  0
  1  8  1  0  0  0  0
  2  3  1  0  0  0  0
  2  9  1  0  0  0  0
  2 10  1  0  0  0  0
  3  4  1  0  0  0  0
  3 11  1  0  0  0  0
  3 12  1  0  0  0  0
  4  5  2  0  0  0  0
  4 13  1  0  0  0  0
  5 14  1  0  0  0  0
  5 15  1  0  0  0  0
M  END
> <grid_ids>
[(-165,), (-150,), (-135,), (-120,), (-105,), (-90,), (-75,), (-60,), (-45,), (-30,), (-15,), (0,), (15,), (30,), (45,), (60,), (75,), (90,), (105,), (120,), (135,), (150,), (165,), (180,)]

$$$$
