
  -OEChem-08192616593D

 23 22  0     0  0  0  0  0  0999 V2000
   -0.4396    0.6885   -0.8942 C   0  0  0  0  0  0  0  0  0  0  0  0
   -1.5317    1.5643   -0.2697 C   0  0  0  0  0  0  0  0  0  0  0  0
   -2.5919    0.7539    0.4866 C   0  0  0  0  0  0  0  0  0  0  0  0
   -3.6814    1.6386    1.1075 C   0  0  0  0  0  0  0  0  0  0  0  0
   -4.7870    0.9048    1.8950 C   0  0  0  0  0  0  0  0  0  0  0  0
   -5.6100   -0.0414    1.0073 C   0  0  0  0  0  0  0  0  0  0  0  0
   -4.2393    0.1654    3.1254 C   0  0  0  0  0  0  0  0  0  0  0  0
    0.3033    1.2920   -1.4273 H   0  0  0  0  0  0  0  0  0  0  0  0
    0.0888    0.1098   -0.1275 H   0  0  0  0  0  0  0  0  0  0  0  0
   -0.8661   -0.0241   -1.6099 H   0  0  0  0  0  0  0  0  0  0  0  0
   -2.0209    2.1559   -1.0550 H   0  0  0  0  0  0  0  0  0  0  0  0
   -1.0730    2.2888    0.4162 H   0  0  0  0  0  0  0  0  0  0  0  0
   -3.0441    0.0305   -0.2037 H   0  0  0  0  0  0  0  0  0  0  0  0
   -2.0963    0.1641    1.2681 H   0  0  0  0  0  0  0  0  0  0  0  0
   -3.2033    2.3678    1.7762 H   0  0  0  0  0  0  0  0  0  0  0  0
   -4.1548    2.2256    0.3084 H   0  0  0  0  0  0  0  0  0  0  0  0
   -5.4701    1.6839    2.2613 H   0  0  0  0  0  0  0  0  0  0  0  0
   -6.4652   -0.4488    1.5583 H   0  0  0  0  0  0  0  0  0  0  0  0
   -5.9977    0.4780    0.1232 H   0  0  0  0  0  0  0  0  0  0  0  0
   -5.0105   -0.8902    0.6603 H   0  0  0  0  0  0  0  0  0  0  0  0
   -5.0562   -0.2410    3.7324 H   0  0  0  0  0  0  0  0  0  0  0  0
   -3.6492    0.8344    3.7624 H   0  0  0  0  0  0  0  0  0  0  0  0
   -3.5974   -0.6744    2.8374 H   0  0  0  0  0  0  0  0  0  0  0  0
  1  2  1  0  0  0  0
  1  8  1  0  0  0  0
  1  9  1  0  0  0  0
  1 10  1  0  0  0  0
  2  3  1  0  0  0  0
  2 11  1  0  0  0  0
  2 12  1  0  0  0  0
  3  4  1  0  0  0  0
  3 13  1  0  0  0  0
  3 14  1  0  0  0  0
  4  5  1  0  0  0  0
  4 15  1  0  0  0  0
  4 16  1  0  0  0  0
  5  6  1  0  0  0  0
  5  7  1  0  0  0  0
  5 17  1  0  0  0  0
  6 18  1  0  0  0  0
  6 19  1  0  0  0  0
  6 20  1  0  0  0  0
  7 21  1  0  0  0  0
  7 22  1  0  0  0  0
  7 23  1  0  0  0  0
M  END
$$$$
