
  -OEChem-08192616593D

 17 16  0     0  0  0  0  0  0999 V2000
   -0.9682   -1.2096   -1.9759 H   0  0  0  0  0  0  0  0  0  0  0  0
   -1.4676   -0.2695   -2.2399 C   0  0  0  0  0  0  0  0  0  0  0  0
   -1.6956   -0.3048   -3.3101 H   0  0  0  0  0  0  0  0  0  0  0  0
   -2.4213   -0.2367   -1.7020 H   0  0  0  0  0  0  0  0  0  0  0  0
   -0.5898    0.9372   -1.8823 C   0  0  0  0  0  0  0  0  0  0  0  0
   -1.1037    1.8623   -2.1767 H   0  0  0  0  0  0  0  0  0  0  0  0
   -0.4773    0.9848   -0.7918 H   0  0  0  0  0  0  0  0  0  0  0  0
    0.8075    0.9109   -2.5208 C   0  0  0  0  0  0  0  0  0  0  0  0
    0.8113    0.9988   -4.0527 C   0  0  0  0  0  0  0  0  0  0  0  0
    2.2266    1.0510   -4.6395 C   0  0  0  0  0  0  0  0  0  0  0  0
    1.3296   -0.0057   -2.2110 H   0  0  0  0  0  0  0  0  0  0  0  0
    1.3965    1.7466   -2.1194 H   0  0  0  0  0  0  0  0  0  0  0  0
    0.2773    0.1404   -4.4773 H   0  0  0  0  0  0  0  0  0  0  0  0
    0.2520    1.8920   -4.3629 H   0  0  0  0  0  0  0  0  0  0  0  0
    2.2059    1.1157   -5.7329 H   0  0  0  0  0  0  0  0  0  0  0  0
    2.7984    0.1554   -4.3694 H   0  0  0  0  0  0  0  0  0  0  0  0
    2.7786    1.9205   -4.2637 H   0  0  0  0  0  0  0  0  0  0  0  0
  1  2  1  0  0  0  0
  2  3  1  0  0  0  0
  2  4  1  0  0  0  0
  2  5  1  0  0  0  0
  5  6  1  0  0  0  0
  5  7  1  0  0  0  0
  5  8  1  0  0  0  0
  8  9  1  0  0  0  0
  8 11  1  0  0  0  0
  8 12  1  0  0  0  0
  9 10  1  0  0  0  0
  9 13  1  0  0  0  0
  9 14  1  0  0  0  0
 10 15  1  0  0  0  0
 10 16  1  0  0  0  0
 10 17  1  0  0  0  0
M  END
$$$$
