
  -OEChem-08192616593D

 20 19  0     0  0  0  0  0  0999 V2000
   -1.5749   -2.0311    0.3896 C   0  0  0  0  0  0  0  0  0  0  0  0
   -0.7665   -1.8229   -0.8988 C   0  0  0  0  0  0  0  0  0  0  0  0
   -0.3795   -3.1082   -1.6612 C   0  0  0  0  0  0  0  0  0  0  0  0
    0.5424   -4.0125   -0.8272 C   0  0  0  0  0  0  0  0  0  0  0  0
   -1.6177   -3.8629   -2.1814 C   0  0  0  0  0  0  0  0  0  0  0  0
   -1.2979   -4.9935   -3.1674 C   0  0  0  0  0  0  0  0  0  0  0  0
   -1.7965   -1.0688    0.8636 H   0  0  0  0  0  0  0  0  0  0  0  0
   -2.5309   -2.5276    0.1944 H   0  0  0  0  0  0  0  0  0  0  0  0
   -1.0273   -2.6366    1.1193 H   0  0  0  0  0  0  0  0  0  0  0  0
    0.1526   -1.2739   -0.6554 H   0  0  0  0  0  0  0  0  0  0  0  0
   -1.3379   -1.1748   -1.5763 H   0  0  0  0  0  0  0  0  0  0  0  0
    0.1921   -2.7820   -2.5426 H   0  0  0  0  0  0  0  0  0  0  0  0
    0.9633   -4.8232   -1.4296 H   0  0  0  0  0  0  0  0  0  0  0  0
    0.0042   -4.4709    0.0102 H   0  0  0  0  0  0  0  0  0  0  0  0
    1.3812   -3.4419   -0.4123 H   0  0  0  0  0  0  0  0  0  0  0  0
   -2.1805   -4.2742   -1.3338 H   0  0  0  0  0  0  0  0  0  0  0  0
   -2.2858   -3.1422   -2.6715 H   0  0  0  0  0  0  0  0  0  0  0  0
   -2.2163   -5.4408   -3.5629 H   0  0  0  0  0  0  0  0  0  0  0  0
   -0.7206   -5.7950   -2.6957 H   0  0  0  0  0  0  0  0  0  0  0  0
   -0.7157   -4.6210   -4.0188 H   0  0  0  0  0  0  0  0  0  0  0  0
  1  2  1  0  0  0  0
  1  7  1  0  0  0  0
  1  8  1  0  0  0  0
  1  9  1  0  0  0  0
  2  3  1  0  0  0  0
  2 10  1  0  0  0  0
  2 11  1  0  0  0  0
  3  4  1  0  0  0  0
  3  5  1  0  0  0  0
  3 12  1  0  0  0  0
  4 13  1  0  0  0  0
  4 14  1  0  0  0  0
  4 15  1  0  0  0  0
  5  6  1  0  0  0  0
  5 16  1  0  0  0  0
  5 17  1  0  0  0  0
  6 18  1  0  0  0  0
  6 19  1  0  0  0  0
  6 20  1  0  0  0  0
M  END
$$$$
