
  -OEChem-08192616593D

 20 19  0     0  0  0  0  0  0999 V2000
   -0.7920    2.0180   -1.2364 C   0  0  0  0  0  0  0  0  0  0  0  0
    0.6699    1.9074   -0.7852 C   0  0  0  0  0  0  0  0  0  0  0  0
    1.7208    2.6388   -1.6567 C   0  0  0  0  0  0  0  0  0  0  0  0
    1.4424    4.1531   -1.6926 C   0  0  0  0  0  0  0  0  0  0  0  0
    1.7222    2.0826   -3.0928 C   0  0  0  0  0  0  0  0  0  0  0  0
    3.1078    2.4021   -1.0295 C   0  0  0  0  0  0  0  0  0  0  0  0
   -1.4435    1.4630   -0.5527 H   0  0  0  0  0  0  0  0  0  0  0  0
   -1.1395    3.0560   -1.2466 H   0  0  0  0  0  0  0  0  0  0  0  0
   -0.9433    1.6042   -2.2384 H   0  0  0  0  0  0  0  0  0  0  0  0
    0.9456    0.8454   -0.7370 H   0  0  0  0  0  0  0  0  0  0  0  0
    0.7527    2.2883    0.2416 H   0  0  0  0  0  0  0  0  0  0  0  0
    2.2305    4.6785   -2.2442 H   0  0  0  0  0  0  0  0  0  0  0  0
    1.4076    4.5721   -0.6799 H   0  0  0  0  0  0  0  0  0  0  0  0
    0.4910    4.3810   -2.1837 H   0  0  0  0  0  0  0  0  0  0  0  0
    2.5202    2.5440   -3.6858 H   0  0  0  0  0  0  0  0  0  0  0  0
    1.8881    0.9987   -3.0960 H   0  0  0  0  0  0  0  0  0  0  0  0
    0.7762    2.2794   -3.6071 H   0  0  0  0  0  0  0  0  0  0  0  0
    3.8933    2.9014   -1.6085 H   0  0  0  0  0  0  0  0  0  0  0  0
    3.3476    1.3329   -0.9928 H   0  0  0  0  0  0  0  0  0  0  0  0
    3.1495    2.7896   -0.0048 H   0  0  0  0  0  0  0  0  0  0  0  0
  1  2  1  0  0  0  0
  1  7  1  0  0  0  0
  1  8  1  0  0  0  0
  1  9  1  0  0  0  0
  2  3  1  0  0  0  0
  2 10  1  0  0  0  0
  2 11  1  0  0  0  0
  3  4  1  0  0  0  0
  3  5  1  0  0  0  0
  3  6  1  0  0  0  0
  4 12  1  0  0  0  0
  4 13  1  0  0  0  0
  4 14  1  0  0  0  0
  5 15  1  0  0  0  0
  5 16  1  0  0  0  0
  5 17  1  0  0  0  0
  6 18  1  0  0  0  0
  6 19  1  0  0  0  0
  6 20  1  0  0  0  0
M  END
$$$$
