
  -OEChem-08192616593D

 20 19  0     0  0  0  0  0  0999 V2000
    0.4350   -0.9390   -0.3654 C   0  0  0  0  0  0  0  0  0  0  0  0
   -0.7553   -1.7850   -0.8358 C   0  0  0  0  0  0  0  0  0  0  0  0
   -0.3754   -3.0148   -1.6819 C   0  0  0  0  0  0  0  0  0  0  0  0
    0.5198   -3.9901   -0.9022 C   0  0  0  0  0  0  0  0  0  0  0  0
   -1.6198   -3.7537   -2.2126 C   0  0  0  0  0  0  0  0  0  0  0  0
   -2.4949   -2.9449   -3.1787 C   0  0  0  0  0  0  0  0  0  0  0  0
    0.0916   -0.0317    0.1434 H   0  0  0  0  0  0  0  0  0  0  0  0
    1.0767   -1.4830    0.3344 H   0  0  0  0  0  0  0  0  0  0  0  0
    1.0561   -0.6285   -1.2142 H   0  0  0  0  0  0  0  0  0  0  0  0
   -1.4255   -1.1429   -1.4178 H   0  0  0  0  0  0  0  0  0  0  0  0
   -1.3341   -2.1213    0.0362 H   0  0  0  0  0  0  0  0  0  0  0  0
    0.1940   -2.6568   -2.5534 H   0  0  0  0  0  0  0  0  0  0  0  0
    0.7682   -4.8662   -1.5117 H   0  0  0  0  0  0  0  0  0  0  0  0
    0.0103   -4.3478    0.0016 H   0  0  0  0  0  0  0  0  0  0  0  0
    1.4616   -3.5274   -0.5929 H   0  0  0  0  0  0  0  0  0  0  0  0
   -1.2865   -4.6666   -2.7226 H   0  0  0  0  0  0  0  0  0  0  0  0
   -2.2265   -4.0882   -1.3594 H   0  0  0  0  0  0  0  0  0  0  0  0
   -3.2976   -3.5666   -3.5901 H   0  0  0  0  0  0  0  0  0  0  0  0
   -1.9038   -2.5658   -4.0210 H   0  0  0  0  0  0  0  0  0  0  0  0
   -2.9663   -2.0863   -2.6908 H   0  0  0  0  0  0  0  0  0  0  0  0
  1  2  1  0  0  0  0
  1  7  1  0  0  0  0
  1  8  1  0  0  0  0
  1  9  1  0  0  0  0
  2  3  1  0  0  0  0
  2 10  1  0  0  0  0
  2 11  1  0  0  0  0
  3  4  1  0  0  0  0
  3  5  1  0  0  0  0
  3 12  1  0  0  0  0
  4 13  1  0  0  0  0
  4 14  1  0  0  0  0
  4 15  1  0  0  0  0
  5  6  1  0  0  0  0
  5 16  1  0  0  0  0
  5 17  1  0  0  0  0
  6 18  1  0  0  0  0
  6 19  1  0  0  0  0
  6 20  1  0  0  0  0
M  END
$$$$
