
  -OEChem-08192616593D

 17 16  0     0  0  0  0  0  0999 V2000
   -1.6702    2.2398   -3.2451 H   0  0  0  0  0  0  0  0  0  0  0  0
   -1.4161    2.2168   -2.1802 C   0  0  0  0  0  0  0  0  0  0  0  0
   -0.8748    3.1422   -1.9497 H   0  0  0  0  0  0  0  0  0  0  0  0
   -2.3561    2.2315   -1.6180 H   0  0  0  0  0  0  0  0  0  0  0  0
   -0.5774    0.9835   -1.8215 C   0  0  0  0  0  0  0  0  0  0  0  0
   -0.4369    0.9493   -0.7339 H   0  0  0  0  0  0  0  0  0  0  0  0
   -1.1357    0.0755   -2.0799 H   0  0  0  0  0  0  0  0  0  0  0  0
    0.8075    0.9523   -2.4894 C   0  0  0  0  0  0  0  0  0  0  0  0
    0.7996    0.9651   -4.0272 C   0  0  0  0  0  0  0  0  0  0  0  0
    0.0506   -0.2155   -4.6581 C   0  0  0  0  0  0  0  0  0  0  0  0
    1.3432    0.0568   -2.1464 H   0  0  0  0  0  0  0  0  0  0  0  0
    1.3903    1.8129   -2.1337 H   0  0  0  0  0  0  0  0  0  0  0  0
    0.3678    1.9061   -4.3892 H   0  0  0  0  0  0  0  0  0  0  0  0
    1.8394    0.9585   -4.3775 H   0  0  0  0  0  0  0  0  0  0  0  0
    0.1445   -0.2041   -5.7494 H   0  0  0  0  0  0  0  0  0  0  0  0
   -1.0182   -0.1926   -4.4205 H   0  0  0  0  0  0  0  0  0  0  0  0
    0.4484   -1.1722   -4.2987 H   0  0  0  0  0  0  0  0  0  0  0  0
  1  2  1  0  0  0  0
  2  3  1  0  0  0  0
  2  4  1  0  0  0  0
  2  5  1  0  0  0  0
  5  6  1  0  0  0  0
  5  7  1  0  0  0  0
  5  8  1  0  0  0  0
  8  9  1  0  0  0  0
  8 11  1  0  0  0  0
  8 12  1  0  0  0  0
  9 10  1  0  0  0  0
  9 13  1  0  0  0  0
  9 14  1  0  0  0  0
 10 15  1  0  0  0  0
 10 16  1  0  0  0  0
 10 17  1  0  0  0  0
M  END
$$$$
