
  -OEChem-08192616593D

 20 19  0     0  0  0  0  0  0999 V2000
    0.4029   -0.9155   -0.4419 C   0  0  0  0  0  0  0  0  0  0  0  0
   -0.7594   -1.8194   -0.8715 C   0  0  0  0  0  0  0  0  0  0  0  0
   -0.3463   -3.0804   -1.6546 C   0  0  0  0  0  0  0  0  0  0  0  0
    0.5333   -4.0141   -0.8098 C   0  0  0  0  0  0  0  0  0  0  0  0
   -1.5979   -3.8024   -2.1898 C   0  0  0  0  0  0  0  0  0  0  0  0
   -1.3124   -4.9762   -3.1348 C   0  0  0  0  0  0  0  0  0  0  0  0
    0.0309    0.0030    0.0250 H   0  0  0  0  0  0  0  0  0  0  0  0
    1.0604   -1.4060    0.2825 H   0  0  0  0  0  0  0  0  0  0  0  0
    1.0153   -0.6254   -1.3041 H   0  0  0  0  0  0  0  0  0  0  0  0
   -1.4483   -1.2347   -1.4948 H   0  0  0  0  0  0  0  0  0  0  0  0
   -1.3344   -2.1228    0.0147 H   0  0  0  0  0  0  0  0  0  0  0  0
    0.2444   -2.7524   -2.5238 H   0  0  0  0  0  0  0  0  0  0  0  0
    0.8565   -4.8906   -1.3792 H   0  0  0  0  0  0  0  0  0  0  0  0
   -0.0169   -4.3709    0.0704 H   0  0  0  0  0  0  0  0  0  0  0  0
    1.4370   -3.5088   -0.4563 H   0  0  0  0  0  0  0  0  0  0  0  0
   -2.1970   -4.1549   -1.3385 H   0  0  0  0  0  0  0  0  0  0  0  0
   -2.2217   -3.0692   -2.7172 H   0  0  0  0  0  0  0  0  0  0  0  0
   -2.2432   -5.3788   -3.5492 H   0  0  0  0  0  0  0  0  0  0  0  0
   -0.7992   -5.7986   -2.6270 H   0  0  0  0  0  0  0  0  0  0  0  0
   -0.6837   -4.6604   -3.9760 H   0  0  0  0  0  0  0  0  0  0  0  0
  1  2  1  0  0  0  0
  1  7  1  0  0  0  0
  1  8  1  0  0  0  0
  1  9  1  0  0  0  0
  2  3  1  0  0  0  0
  2 10  1  0  0  0  0
  2 11  1  0  0  0  0
  3  4  1  0  0  0  0
  3  5  1  0  0  0  0
  3 12  1  0  0  0  0
  4 13  1  0  0  0  0
  4 14  1  0  0  0  0
  4 15  1  0  0  0  0
  5  6  1  0  0  0  0
  5 16  1  0  0  0  0
  5 17  1  0  0  0  0
  6 18  1  0  0  0  0
  6 19  1  0  0  0  0
  6 20  1  0  0  0  0
M  END
$$$$
