
  -OEChem-08192616593D

 23 22  0     0  0  0  0  0  0999 V2000
   -0.7464   -0.9589    0.9606 C   0  0  0  0  0  0  0  0  0  0  0  0
   -1.8807   -0.1337    1.5791 C   0  0  0  0  0  0  0  0  0  0  0  0
   -2.6275    0.7159    0.5428 C   0  0  0  0  0  0  0  0  0  0  0  0
   -3.7027    1.6429    1.1309 C   0  0  0  0  0  0  0  0  0  0  0  0
   -4.8370    0.9575    1.9163 C   0  0  0  0  0  0  0  0  0  0  0  0
   -5.8102    2.0107    2.4658 C   0  0  0  0  0  0  0  0  0  0  0  0
   -5.5863   -0.0809    1.0691 C   0  0  0  0  0  0  0  0  0  0  0  0
   -0.2268   -1.5578    1.7166 H   0  0  0  0  0  0  0  0  0  0  0  0
   -1.1302   -1.6458    0.1972 H   0  0  0  0  0  0  0  0  0  0  0  0
   -0.0041   -0.3118    0.4787 H   0  0  0  0  0  0  0  0  0  0  0  0
   -1.4743    0.5235    2.3598 H   0  0  0  0  0  0  0  0  0  0  0  0
   -2.5824   -0.8086    2.0838 H   0  0  0  0  0  0  0  0  0  0  0  0
   -1.8976    1.3346    0.0036 H   0  0  0  0  0  0  0  0  0  0  0  0
   -3.0724    0.0556   -0.2124 H   0  0  0  0  0  0  0  0  0  0  0  0
   -3.2153    2.3731    1.7917 H   0  0  0  0  0  0  0  0  0  0  0  0
   -4.1510    2.2251    0.3133 H   0  0  0  0  0  0  0  0  0  0  0  0
   -4.3947    0.4365    2.7758 H   0  0  0  0  0  0  0  0  0  0  0  0
   -6.5977    1.5483    3.0716 H   0  0  0  0  0  0  0  0  0  0  0  0
   -5.2910    2.7445    3.0928 H   0  0  0  0  0  0  0  0  0  0  0  0
   -6.2967    2.5568    1.6479 H   0  0  0  0  0  0  0  0  0  0  0  0
   -6.4144   -0.5235    1.6340 H   0  0  0  0  0  0  0  0  0  0  0  0
   -4.9327   -0.8980    0.7477 H   0  0  0  0  0  0  0  0  0  0  0  0
   -6.0079    0.3827    0.1682 H   0  0  0  0  0  0  0  0  0  0  0  0
  1  2  1  0  0  0  0
  1  8  1  0  0  0  0
  1  9  1  0  0  0  0
  1 10  1  0  0  0  0
  2  3  1  0  0  0  0
  2 11  1  0  0  0  0
  2 12  1  0  0  0  0
  3  4  1  0  0  0  0
  3 13  1  0  0  0  0
  3 14  1  0  0  0  0
  4  5  1  0  0  0  0
  4 15  1  0  0  0  0
  4 16  1  0  0  0  0
  5  6  1  0  0  0  0
  5  7  1  0  0  0  0
  5 17  1  0  0  0  0
  6 18  1  0  0  0  0
  6 19  1  0  0  0  0
  6 20  1  0  0  0  0
  7 21  1  0  0  0  0
  7 22  1  0  0  0  0
  7 23  1  0  0  0  0
M  END
$$$$
