
  -OEChem-08192616593D

 20 19  0     0  0  0  0  0  0999 V2000
   -1.6296   -0.7777   -1.6332 C   0  0  0  0  0  0  0  0  0  0  0  0
   -0.7627   -1.7910   -0.8766 C   0  0  0  0  0  0  0  0  0  0  0  0
   -0.3836   -3.0449   -1.6875 C   0  0  0  0  0  0  0  0  0  0  0  0
    0.5509   -3.9493   -0.8689 C   0  0  0  0  0  0  0  0  0  0  0  0
   -1.6028   -3.8208   -2.2311 C   0  0  0  0  0  0  0  0  0  0  0  0
   -2.5953   -4.3189   -1.1715 C   0  0  0  0  0  0  0  0  0  0  0  0
   -1.7788    0.1310   -1.0399 H   0  0  0  0  0  0  0  0  0  0  0  0
   -1.1590   -0.4838   -2.5790 H   0  0  0  0  0  0  0  0  0  0  0  0
   -2.6196   -1.1818   -1.8682 H   0  0  0  0  0  0  0  0  0  0  0  0
   -1.2725   -2.0925    0.0474 H   0  0  0  0  0  0  0  0  0  0  0  0
    0.1649   -1.2986   -0.5574 H   0  0  0  0  0  0  0  0  0  0  0  0
    0.1814   -2.7018   -2.5667 H   0  0  0  0  0  0  0  0  0  0  0  0
    0.8465   -4.8372   -1.4396 H   0  0  0  0  0  0  0  0  0  0  0  0
    0.0729   -4.2911    0.0559 H   0  0  0  0  0  0  0  0  0  0  0  0
    1.4642   -3.4142   -0.5854 H   0  0  0  0  0  0  0  0  0  0  0  0
   -2.1382   -3.1905   -2.9508 H   0  0  0  0  0  0  0  0  0  0  0  0
   -1.2324   -4.6799   -2.8052 H   0  0  0  0  0  0  0  0  0  0  0  0
   -3.4091   -4.8816   -1.6412 H   0  0  0  0  0  0  0  0  0  0  0  0
   -3.0482   -3.4900   -0.6175 H   0  0  0  0  0  0  0  0  0  0  0  0
   -2.1164   -4.9819   -0.4436 H   0  0  0  0  0  0  0  0  0  0  0  0
  1  2  1  0  0  0  0
  1  7  1  0  0  0  0
  1  8  1  0  0  0  0
  1  9  1  0  0  0  0
  2  3  1  0  0  0  0
  2 10  1  0  0  0  0
  2 11  1  0  0  0  0
  3  4  1  0  0  0  0
  3  5  1  0  0  0  0
  3 12  1  0  0  0  0
  4 13  1  0  0  0  0
  4 14  1  0  0  0  0
  4 15  1  0  0  0  0
  5  6  1  0  0  0  0
  5 16  1  0  0  0  0
  5 17  1  0  0  0  0
  6 18  1  0  0  0  0
  6 19  1  0  0  0  0
  6 20  1  0  0  0  0
M  END
$$$$
