
  -OEChem-08192616593D

 23 22  0     0  0  0  0  0  0999 V2000
   -0.4381    0.6518   -0.8426 C   0  0  0  0  0  0  0  0  0  0  0  0
   -1.5320    1.5508   -0.2554 C   0  0  0  0  0  0  0  0  0  0  0  0
   -2.6332    0.7637    0.4658 C   0  0  0  0  0  0  0  0  0  0  0  0
   -3.7332    1.6623    1.0437 C   0  0  0  0  0  0  0  0  0  0  0  0
   -4.8010    0.9349    1.8806 C   0  0  0  0  0  0  0  0  0  0  0  0
   -5.7562    1.9476    2.5290 C   0  0  0  0  0  0  0  0  0  0  0  0
   -5.5886   -0.0943    1.0562 C   0  0  0  0  0  0  0  0  0  0  0  0
    0.3351    1.2392   -1.3499 H   0  0  0  0  0  0  0  0  0  0  0  0
    0.0514    0.0624   -0.0586 H   0  0  0  0  0  0  0  0  0  0  0  0
   -0.8550   -0.0519   -1.5726 H   0  0  0  0  0  0  0  0  0  0  0  0
   -1.9831    2.1507   -1.0570 H   0  0  0  0  0  0  0  0  0  0  0  0
   -1.0815    2.2673    0.4443 H   0  0  0  0  0  0  0  0  0  0  0  0
   -3.0671    0.0397   -0.2349 H   0  0  0  0  0  0  0  0  0  0  0  0
   -2.1833    0.1730    1.2765 H   0  0  0  0  0  0  0  0  0  0  0  0
   -3.2635    2.4322    1.6712 H   0  0  0  0  0  0  0  0  0  0  0  0
   -4.2301    2.2015    0.2239 H   0  0  0  0  0  0  0  0  0  0  0  0
   -4.2825    0.3963    2.6873 H   0  0  0  0  0  0  0  0  0  0  0  0
   -6.4964    1.4475    3.1637 H   0  0  0  0  0  0  0  0  0  0  0  0
   -5.2125    2.6684    3.1502 H   0  0  0  0  0  0  0  0  0  0  0  0
   -6.3026    2.5129    1.7637 H   0  0  0  0  0  0  0  0  0  0  0  0
   -6.3627   -0.5746    1.6653 H   0  0  0  0  0  0  0  0  0  0  0  0
   -4.9437   -0.8843    0.6597 H   0  0  0  0  0  0  0  0  0  0  0  0
   -6.0870    0.3896    0.2065 H   0  0  0  0  0  0  0  0  0  0  0  0
  1  2  1  0  0  0  0
  1  8  1  0  0  0  0
  1  9  1  0  0  0  0
  1 10  1  0  0  0  0
  2  3  1  0  0  0  0
  2 11  1  0  0  0  0
  2 12  1  0  0  0  0
  3  4  1  0  0  0  0
  3 13  1  0  0  0  0
  3 14  1  0  0  0  0
  4  5  1  0  0  0  0
  4 15  1  0  0  0  0
  4 16  1  0  0  0  0
  5  6  1  0  0  0  0
  5  7  1  0  0  0  0
  5 17  1  0  0  0  0
  6 18  1  0  0  0  0
  6 19  1  0  0  0  0
  6 20  1  0  0  0  0
  7 21  1  0  0  0  0
  7 22  1  0  0  0  0
  7 23  1  0  0  0  0
M  END
$$$$
