
  -OEChem-08192616593D

 23 22  0     0  0  0  0  0  0999 V2000
   -2.1222   -1.1381   -1.1641 C   0  0  0  0  0  0  0  0  0  0  0  0
   -3.2242   -0.3263   -0.4738 C   0  0  0  0  0  0  0  0  0  0  0  0
   -2.6664    0.7314    0.4873 C   0  0  0  0  0  0  0  0  0  0  0  0
   -3.7283    1.6460    1.1172 C   0  0  0  0  0  0  0  0  0  0  0  0
   -4.8210    0.9479    1.9492 C   0  0  0  0  0  0  0  0  0  0  0  0
   -4.2350    0.1150    3.0982 C   0  0  0  0  0  0  0  0  0  0  0  0
   -5.8179    1.9848    2.4871 C   0  0  0  0  0  0  0  0  0  0  0  0
   -2.5414   -1.8894   -1.8424 H   0  0  0  0  0  0  0  0  0  0  0  0
   -1.4620   -0.4891   -1.7512 H   0  0  0  0  0  0  0  0  0  0  0  0
   -1.5004   -1.6626   -0.4291 H   0  0  0  0  0  0  0  0  0  0  0  0
   -3.8883   -1.0099    0.0688 H   0  0  0  0  0  0  0  0  0  0  0  0
   -3.8476    0.1673   -1.2317 H   0  0  0  0  0  0  0  0  0  0  0  0
   -2.0843    0.2338    1.2735 H   0  0  0  0  0  0  0  0  0  0  0  0
   -1.9508    1.3606   -0.0589 H   0  0  0  0  0  0  0  0  0  0  0  0
   -3.2234    2.3829    1.7579 H   0  0  0  0  0  0  0  0  0  0  0  0
   -4.2157    2.2219    0.3184 H   0  0  0  0  0  0  0  0  0  0  0  0
   -5.3757    0.2687    1.2883 H   0  0  0  0  0  0  0  0  0  0  0  0
   -5.0315   -0.3362    3.7005 H   0  0  0  0  0  0  0  0  0  0  0  0
   -3.5974   -0.6967    2.7339 H   0  0  0  0  0  0  0  0  0  0  0  0
   -3.6288    0.7422    3.7641 H   0  0  0  0  0  0  0  0  0  0  0  0
   -6.6335    1.5046    3.0395 H   0  0  0  0  0  0  0  0  0  0  0  0
   -6.2618    2.5703    1.6739 H   0  0  0  0  0  0  0  0  0  0  0  0
   -5.3214    2.6860    3.1695 H   0  0  0  0  0  0  0  0  0  0  0  0
  1  2  1  0  0  0  0
  1  8  1  0  0  0  0
  1  9  1  0  0  0  0
  1 10  1  0  0  0  0
  2  3  1  0  0  0  0
  2 11  1  0  0  0  0
  2 12  1  0  0  0  0
  3  4  1  0  0  0  0
  3 13  1  0  0  0  0
  3 14  1  0  0  0  0
  4  5  1  0  0  0  0
  4 15  1  0  0  0  0
  4 16  1  0  0  0  0
  5  6  1  0  0  0  0
  5  7  1  0  0  0  0
  5 17  1  0  0  0  0
  6 18  1  0  0  0  0
  6 19  1  0  0  0  0
  6 20  1  0  0  0  0
  7 21  1  0  0  0  0
  7 22  1  0  0  0  0
  7 23  1  0  0  0  0
M  END
$$$$
