
  -OEChem-08192616593D

 23 22  0     0  0  0  0  0  0999 V2000
    0.0380   -0.5909   -0.8130 C   0  0  0  0  0  0  0  0  0  0  0  0
    1.4314   -0.3442   -1.4061 C   0  0  0  0  0  0  0  0  0  0  0  0
    2.5893   -0.6881   -0.4565 C   0  0  0  0  0  0  0  0  0  0  0  0
    2.6844   -2.1727   -0.0811 C   0  0  0  0  0  0  0  0  0  0  0  0
    3.9108   -2.4894    0.7847 C   0  0  0  0  0  0  0  0  0  0  0  0
    3.9904   -3.9459    1.2674 C   0  0  0  0  0  0  0  0  0  0  0  0
    4.1490   -4.9738    0.1393 C   0  0  0  0  0  0  0  0  0  0  0  0
   -0.7479   -0.2633   -1.5022 H   0  0  0  0  0  0  0  0  0  0  0  0
   -0.0915   -0.0396    0.1263 H   0  0  0  0  0  0  0  0  0  0  0  0
   -0.1323   -1.6513   -0.6008 H   0  0  0  0  0  0  0  0  0  0  0  0
    1.5142    0.7114   -1.6943 H   0  0  0  0  0  0  0  0  0  0  0  0
    1.5410   -0.9232   -2.3330 H   0  0  0  0  0  0  0  0  0  0  0  0
    3.5341   -0.3817   -0.9252 H   0  0  0  0  0  0  0  0  0  0  0  0
    2.4956   -0.0883    0.4599 H   0  0  0  0  0  0  0  0  0  0  0  0
    1.7801   -2.4815    0.4589 H   0  0  0  0  0  0  0  0  0  0  0  0
    2.7112   -2.7698   -1.0017 H   0  0  0  0  0  0  0  0  0  0  0  0
    3.9049   -1.8264    1.6603 H   0  0  0  0  0  0  0  0  0  0  0  0
    4.8234   -2.2441    0.2233 H   0  0  0  0  0  0  0  0  0  0  0  0
    4.8374   -4.0418    1.9585 H   0  0  0  0  0  0  0  0  0  0  0  0
    3.0912   -4.1819    1.8522 H   0  0  0  0  0  0  0  0  0  0  0  0
    4.2727   -5.9852    0.5416 H   0  0  0  0  0  0  0  0  0  0  0  0
    3.2779   -4.9883   -0.5236 H   0  0  0  0  0  0  0  0  0  0  0  0
    5.0296   -4.7494   -0.4747 H   0  0  0  0  0  0  0  0  0  0  0  0
  1  2  1  0  0  0  0
  1  8  1  0  0  0  0
  1  9  1  0  0  0  0
  1 10  1  0  0  0  0
  2  3  1  0  0  0  0
  2 11  1  0  0  0  0
  2 12  1  0  0  0  0
  3  4  1  0  0  0  0
  3 13  1  0  0  0  0
  3 14  1  0  0  0  0
  4  5  1  0  0  0  0
  4 15  1  0  0  0  0
  4 16  1  0  0  0  0
  5  6  1  0  0  0  0
  5 17  1  0  0  0  0
  5 18  1  0  0  0  0
  6  7  1  0  0  0  0
  6 19  1  0  0  0  0
  6 20  1  0  0  0  0
  7 21  1  0  0  0  0
  7 22  1  0  0  0  0
  7 23  1  0  0  0  0
M  END
$$$$
