
  -OEChem-08192616593D

 17 16  0     0  0  0  0  0  0999 V2000
    0.0094    1.7646    0.0955 H   0  0  0  0  0  0  0  0  0  0  0  0
   -0.5323    0.9033   -0.3126 C   0  0  0  0  0  0  0  0  0  0  0  0
   -0.0229   -0.0025    0.0367 H   0  0  0  0  0  0  0  0  0  0  0  0
   -1.5390    0.9073    0.1195 H   0  0  0  0  0  0  0  0  0  0  0  0
   -0.5781    0.9551   -1.8440 C   0  0  0  0  0  0  0  0  0  0  0  0
   -1.1537    0.1000   -2.2226 H   0  0  0  0  0  0  0  0  0  0  0  0
   -1.1215    1.8540   -2.1642 H   0  0  0  0  0  0  0  0  0  0  0  0
    0.8136    0.9510   -2.4874 C   0  0  0  0  0  0  0  0  0  0  0  0
    0.7806    1.0004   -4.0194 C   0  0  0  0  0  0  0  0  0  0  0  0
    2.1774    0.9959   -4.6511 C   0  0  0  0  0  0  0  0  0  0  0  0
    1.3591    0.0527   -2.1654 H   0  0  0  0  0  0  0  0  0  0  0  0
    1.3901    1.8072   -2.1095 H   0  0  0  0  0  0  0  0  0  0  0  0
    0.2052    0.1444   -4.3963 H   0  0  0  0  0  0  0  0  0  0  0  0
    0.2362    1.8985   -4.3404 H   0  0  0  0  0  0  0  0  0  0  0  0
    2.1237    1.0317   -5.7447 H   0  0  0  0  0  0  0  0  0  0  0  0
    2.7331    0.0925   -4.3737 H   0  0  0  0  0  0  0  0  0  0  0  0
    2.7643    1.8596   -4.3174 H   0  0  0  0  0  0  0  0  0  0  0  0
  1  2  1  0  0  0  0
  2  3  1  0  0  0  0
  2  4  1  0  0  0  0
  2  5  1  0  0  0  0
  5  6  1  0  0  0  0
  5  7  1  0  0  0  0
  5  8  1  0  0  0  0
  8  9  1  0  0  0  0
  8 11  1  0  0  0  0
  8 12  1  0  0  0  0
  9 10  1  0  0  0  0
  9 13  1  0  0  0  0
  9 14  1  0  0  0  0
 10 15  1  0  0  0  0
 10 16  1  0  0  0  0
 10 17  1  0  0  0  0
M  END
$$$$
