
  -OEChem-08192616593D

 17 16  0     0  0  0  0  0  0999 V2000
   -0.9303   -1.2227   -2.0922 H   0  0  0  0  0  0  0  0  0  0  0  0
   -1.4465   -0.2693   -2.2571 C   0  0  0  0  0  0  0  0  0  0  0  0
   -1.7052   -0.2138   -3.3198 H   0  0  0  0  0  0  0  0  0  0  0  0
   -2.3844   -0.2959   -1.6920 H   0  0  0  0  0  0  0  0  0  0  0  0
   -0.5726    0.9136   -1.8212 C   0  0  0  0  0  0  0  0  0  0  0  0
   -1.1061    1.8520   -2.0157 H   0  0  0  0  0  0  0  0  0  0  0  0
   -0.4278    0.8710   -0.7345 H   0  0  0  0  0  0  0  0  0  0  0  0
    0.8108    0.9512   -2.4921 C   0  0  0  0  0  0  0  0  0  0  0  0
    0.7982    1.0356   -4.0275 C   0  0  0  0  0  0  0  0  0  0  0  0
    0.0808    2.2742   -4.5790 C   0  0  0  0  0  0  0  0  0  0  0  0
    1.3724    0.0555   -2.1938 H   0  0  0  0  0  0  0  0  0  0  0  0
    1.3702    1.8096   -2.0959 H   0  0  0  0  0  0  0  0  0  0  0  0
    1.8367    1.0352   -4.3817 H   0  0  0  0  0  0  0  0  0  0  0  0
    0.3388    0.1319   -4.4461 H   0  0  0  0  0  0  0  0  0  0  0  0
    0.1697    2.3286   -5.6695 H   0  0  0  0  0  0  0  0  0  0  0  0
    0.5076    3.1948   -4.1630 H   0  0  0  0  0  0  0  0  0  0  0  0
   -0.9871    2.2670   -4.3368 H   0  0  0  0  0  0  0  0  0  0  0  0
  1  2  1  0  0  0  0
  2  3  1  0  0  0  0
  2  4  1  0  0  0  0
  2  5  1  0  0  0  0
  5  6  1  0  0  0  0
  5  7  1  0  0  0  0
  5  8  1  0  0  0  0
  8  9  1  0  0  0  0
  8 11  1  0  0  0  0
  8 12  1  0  0  0  0
  9 10  1  0  0  0  0
  9 13  1  0  0  0  0
  9 14  1  0  0  0  0
 10 15  1  0  0  0  0
 10 16  1  0  0  0  0
 10 17  1  0  0  0  0
M  END
$$$$
