
  -OEChem-08192616593D

 20 19  0     0  0  0  0  0  0999 V2000
    0.4372   -0.8941   -0.4402 C   0  0  0  0  0  0  0  0  0  0  0  0
   -0.7482   -1.7916   -0.8171 C   0  0  0  0  0  0  0  0  0  0  0  0
   -0.3619   -3.0400   -1.6332 C   0  0  0  0  0  0  0  0  0  0  0  0
    0.5229   -4.0065   -0.8295 C   0  0  0  0  0  0  0  0  0  0  0  0
   -1.6002   -3.7492   -2.2219 C   0  0  0  0  0  0  0  0  0  0  0  0
   -2.5864   -4.3270   -1.1970 C   0  0  0  0  0  0  0  0  0  0  0  0
    0.0959    0.0131    0.0701 H   0  0  0  0  0  0  0  0  0  0  0  0
    1.1370   -1.4028    0.2304 H   0  0  0  0  0  0  0  0  0  0  0  0
    0.9960   -0.5844   -1.3314 H   0  0  0  0  0  0  0  0  0  0  0  0
   -1.4690   -1.2024   -1.3996 H   0  0  0  0  0  0  0  0  0  0  0  0
   -1.2718   -2.0980    0.0974 H   0  0  0  0  0  0  0  0  0  0  0  0
    0.2301   -2.6920   -2.4925 H   0  0  0  0  0  0  0  0  0  0  0  0
    0.7358   -4.9146   -1.4052 H   0  0  0  0  0  0  0  0  0  0  0  0
    0.0386   -4.3103    0.1055 H   0  0  0  0  0  0  0  0  0  0  0  0
    1.4829   -3.5510   -0.5685 H   0  0  0  0  0  0  0  0  0  0  0  0
   -2.1338   -3.0393   -2.8676 H   0  0  0  0  0  0  0  0  0  0  0  0
   -1.2566   -4.5592   -2.8786 H   0  0  0  0  0  0  0  0  0  0  0  0
   -3.4246   -4.8165   -1.7045 H   0  0  0  0  0  0  0  0  0  0  0  0
   -3.0046   -3.5483   -0.5510 H   0  0  0  0  0  0  0  0  0  0  0  0
   -2.1118   -5.0751   -0.5537 H   0  0  0  0  0  0  0  0  0  0  0  0
  1  2  1  0  0  0  0
  1  7  1  0  0  0  0
  1  8  1  0  0  0  0
  1  9  1  0  0  0  0
  2  3  1  0  0  0  0
  2 10  1  0  0  0  0
  2 11  1  0  0  0  0
  3  4  1  0  0  0  0
  3  5  1  0  0  0  0
  3 12  1  0  0  0  0
  4 13  1  0  0  0  0
  4 14  1  0  0  0  0
  4 15  1  0  0  0  0
  5  6  1  0  0  0  0
  5 16  1  0  0  0  0
  5 17  1  0  0  0  0
  6 18  1  0  0  0  0
  6 19  1  0  0  0  0
  6 20  1  0  0  0  0
M  END
$$$$
