
  -OEChem-08192616593D

 32 31  0     0  0  0  0  0  0999 V2000
    1.4412    0.6991    4.6644 H   0  0  0  0  0  0  0  0  0  0  0  0
    2.1055   -0.1046    4.3257 C   0  0  0  0  0  0  0  0  0  0  0  0
    3.0819    0.0485    4.7981 H   0  0  0  0  0  0  0  0  0  0  0  0
    1.6975   -1.0501    4.7019 H   0  0  0  0  0  0  0  0  0  0  0  0
    2.2170   -0.1211    2.7970 C   0  0  0  0  0  0  0  0  0  0  0  0
    2.9126   -0.9129    2.4888 H   0  0  0  0  0  0  0  0  0  0  0  0
    2.6581    0.8233    2.4514 H   0  0  0  0  0  0  0  0  0  0  0  0
    0.8690   -0.3338    2.0982 C   0  0  0  0  0  0  0  0  0  0  0  0
    0.1731    0.4596    2.4053 H   0  0  0  0  0  0  0  0  0  0  0  0
    0.4255   -1.2771    2.4463 H   0  0  0  0  0  0  0  0  0  0  0  0
    0.9716   -0.3549    0.5684 C   0  0  0  0  0  0  0  0  0  0  0  0
    1.6631   -1.1523    0.2697 H   0  0  0  0  0  0  0  0  0  0  0  0
    1.4248    0.5854    0.2308 H   0  0  0  0  0  0  0  0  0  0  0  0
   -0.3900   -0.5548   -0.1084 C   0  0  0  0  0  0  0  0  0  0  0  0
   -0.8400   -1.4815    0.2740 H   0  0  0  0  0  0  0  0  0  0  0  0
   -1.0614    0.2520    0.2127 H   0  0  0  0  0  0  0  0  0  0  0  0
   -0.3980   -0.6255   -1.6553 C   0  0  0  0  0  0  0  0  0  0  0  0
    0.3710   -1.8714   -2.1365 C   0  0  0  0  0  0  0  0  0  0  0  0
    0.3026   -1.9726   -3.2259 H   0  0  0  0  0  0  0  0  0  0  0  0
   -0.0402   -2.7847   -1.6904 H   0  0  0  0  0  0  0  0  0  0  0  0
    1.4335   -1.8202   -1.8782 H   0  0  0  0  0  0  0  0  0  0  0  0
   -1.8618   -0.7548   -2.1198 C   0  0  0  0  0  0  0  0  0  0  0  0
   -1.9271   -0.7888   -3.2138 H   0  0  0  0  0  0  0  0  0  0  0  0
   -2.4756    0.0825   -1.7722 H   0  0  0  0  0  0  0  0  0  0  0  0
   -2.3122   -1.6750   -1.7301 H   0  0  0  0  0  0  0  0  0  0  0  0
    0.2571    0.6228   -2.2976 C   0  0  0  0  0  0  0  0  0  0  0  0
    1.3298    0.6155   -2.0695 H   0  0  0  0  0  0  0  0  0  0  0  0
    0.1852    0.5174   -3.3882 H   0  0  0  0  0  0  0  0  0  0  0  0
   -0.3256    1.9821   -1.8910 C   0  0  0  0  0  0  0  0  0  0  0  0
    0.1923    2.7916   -2.4168 H   0  0  0  0  0  0  0  0  0  0  0  0
   -0.2169    2.1681   -0.8176 H   0  0  0  0  0  0  0  0  0  0  0  0
   -1.3894    2.0620   -2.1363 H   0  0  0  0  0  0  0  0  0  0  0  0
  1  2  1  0  0  0  0
  2  3  1  0  0  0  0
  2  4  1  0  0  0  0
  2  5  1  0  0  0  0
  5  6  1  0  0  0  0
  5  7  1  0  0  0  0
  5  8  1  0  0  0  0
  8  9  1  0  0  0  0
  8 10  1  0  0  0  0
  8 11  1  0  0  0  0
 11 12  1  0  0  0  0
 11 13  1  0  0  0  0
 11 14  1  0  0  0  0
 14 15  1  0  0  0  0
 14 16  1  0  0  0  0
 14 17  1  0  0  0  0
 17 18  1  0  0  0  0
 17 22  1  0  0  0  0
 17 26  1  0  0  0  0
 18 19  1  0  0  0  0
 18 20  1  0  0  0  0
 18 21  1  0  0  0  0
 22 23  1  0  0  0  0
 22 24  1  0  0  0  0
 22 25  1  0  0  0  0
 26 27  1  0  0  0  0
 26 28  1  0  0  0  0
 26 29  1  0  0  0  0
 29 30  1  0  0  0  0
 29 31  1  0  0  0  0
 29 32  1  0  0  0  0
M  END
$$$$
