
  -OEChem-08192616593D

 32 31  0     0  0  0  0  0  0999 V2000
   -0.3294    0.0683    4.6276 H   0  0  0  0  0  0  0  0  0  0  0  0
    0.1055    0.9792    4.1996 C   0  0  0  0  0  0  0  0  0  0  0  0
   -0.4612    1.8328    4.5873 H   0  0  0  0  0  0  0  0  0  0  0  0
    1.1325    1.0618    4.5742 H   0  0  0  0  0  0  0  0  0  0  0  0
    0.0778    0.9353    2.6675 C   0  0  0  0  0  0  0  0  0  0  0  0
    0.4955    1.8687    2.2659 H   0  0  0  0  0  0  0  0  0  0  0  0
   -0.9637    0.8948    2.3279 H   0  0  0  0  0  0  0  0  0  0  0  0
    0.8632   -0.2521    2.0943 C   0  0  0  0  0  0  0  0  0  0  0  0
    0.4163   -1.1893    2.4549 H   0  0  0  0  0  0  0  0  0  0  0  0
    1.8828   -0.2253    2.5018 H   0  0  0  0  0  0  0  0  0  0  0  0
    0.9459   -0.2842    0.5598 C   0  0  0  0  0  0  0  0  0  0  0  0
    1.6415   -1.0790    0.2668 H   0  0  0  0  0  0  0  0  0  0  0  0
    1.3911    0.6563    0.2114 H   0  0  0  0  0  0  0  0  0  0  0  0
   -0.4093   -0.5095   -0.1241 C   0  0  0  0  0  0  0  0  0  0  0  0
   -0.8558   -1.4287    0.2812 H   0  0  0  0  0  0  0  0  0  0  0  0
   -1.0940    0.2991    0.1547 H   0  0  0  0  0  0  0  0  0  0  0  0
   -0.3959   -0.6256   -1.6685 C   0  0  0  0  0  0  0  0  0  0  0  0
    0.3965   -1.8720   -2.1080 C   0  0  0  0  0  0  0  0  0  0  0  0
    0.3367   -2.0058   -3.1944 H   0  0  0  0  0  0  0  0  0  0  0  0
   -0.0026   -2.7787   -1.6381 H   0  0  0  0  0  0  0  0  0  0  0  0
    1.4565   -1.7963   -1.8457 H   0  0  0  0  0  0  0  0  0  0  0  0
   -1.8518   -0.7893   -2.1467 C   0  0  0  0  0  0  0  0  0  0  0  0
   -1.9029   -0.8533   -3.2401 H   0  0  0  0  0  0  0  0  0  0  0  0
   -2.4824    0.0474   -1.8291 H   0  0  0  0  0  0  0  0  0  0  0  0
   -2.2933   -1.7057   -1.7381 H   0  0  0  0  0  0  0  0  0  0  0  0
    0.2479    0.6159   -2.3356 C   0  0  0  0  0  0  0  0  0  0  0  0
    1.3182    0.6299   -2.0970 H   0  0  0  0  0  0  0  0  0  0  0  0
    0.1885    0.4824   -3.4240 H   0  0  0  0  0  0  0  0  0  0  0  0
   -0.3580    1.9762   -1.9681 C   0  0  0  0  0  0  0  0  0  0  0  0
    0.1510    2.7795   -2.5118 H   0  0  0  0  0  0  0  0  0  0  0  0
   -0.2590    2.1914   -0.8992 H   0  0  0  0  0  0  0  0  0  0  0  0
   -1.4213    2.0336   -2.2218 H   0  0  0  0  0  0  0  0  0  0  0  0
  1  2  1  0  0  0  0
  2  3  1  0  0  0  0
  2  4  1  0  0  0  0
  2  5  1  0  0  0  0
  5  6  1  0  0  0  0
  5  7  1  0  0  0  0
  5  8  1  0  0  0  0
  8  9  1  0  0  0  0
  8 10  1  0  0  0  0
  8 11  1  0  0  0  0
 11 12  1  0  0  0  0
 11 13  1  0  0  0  0
 11 14  1  0  0  0  0
 14 15  1  0  0  0  0
 14 16  1  0  0  0  0
 14 17  1  0  0  0  0
 17 18  1  0  0  0  0
 17 22  1  0  0  0  0
 17 26  1  0  0  0  0
 18 19  1  0  0  0  0
 18 20  1  0  0  0  0
 18 21  1  0  0  0  0
 22 23  1  0  0  0  0
 22 24  1  0  0  0  0
 22 25  1  0  0  0  0
 26 27  1  0  0  0  0
 26 28  1  0  0  0  0
 26 29  1  0  0  0  0
 29 30  1  0  0  0  0
 29 31  1  0  0  0  0
 29 32  1  0  0  0  0
M  END
$$$$
