
  -OEChem-08192616593D

 29 28  0     0  0  0  0  0  0999 V2000
    1.4604    4.7500    3.3969 H   0  0  0  0  0  0  0  0  0  0  0  0
    1.0006    3.7764    3.1904 C   0  0  0  0  0  0  0  0  0  0  0  0
   -0.0399    3.9546    2.8975 H   0  0  0  0  0  0  0  0  0  0  0  0
    0.9905    3.2106    4.1293 H   0  0  0  0  0  0  0  0  0  0  0  0
    1.7702    3.0229    2.0997 C   0  0  0  0  0  0  0  0  0  0  0  0
    1.2708    2.0670    1.8925 H   0  0  0  0  0  0  0  0  0  0  0  0
    1.7333    3.5949    1.1631 H   0  0  0  0  0  0  0  0  0  0  0  0
    3.2340    2.7566    2.4719 C   0  0  0  0  0  0  0  0  0  0  0  0
    3.2617    2.1965    3.4146 H   0  0  0  0  0  0  0  0  0  0  0  0
    3.7363    3.7141    2.6701 H   0  0  0  0  0  0  0  0  0  0  0  0
    4.0011    1.9992    1.3803 C   0  0  0  0  0  0  0  0  0  0  0  0
    3.8862    2.5462    0.4343 H   0  0  0  0  0  0  0  0  0  0  0  0
    3.5261    1.0215    1.2239 H   0  0  0  0  0  0  0  0  0  0  0  0
    5.5061    1.8068    1.6548 C   0  0  0  0  0  0  0  0  0  0  0  0
    5.9131    2.7915    1.9314 H   0  0  0  0  0  0  0  0  0  0  0  0
    5.7507    0.8636    2.8495 C   0  0  0  0  0  0  0  0  0  0  0  0
    5.2352    1.2688    3.7271 H   0  0  0  0  0  0  0  0  0  0  0  0
    5.2810   -0.1082    2.6491 H   0  0  0  0  0  0  0  0  0  0  0  0
    7.2274    0.6546    3.2074 C   0  0  0  0  0  0  0  0  0  0  0  0
    7.3269    0.0671    4.1266 H   0  0  0  0  0  0  0  0  0  0  0  0
    7.7334    1.6138    3.3700 H   0  0  0  0  0  0  0  0  0  0  0  0
    7.7706    0.1238    2.4192 H   0  0  0  0  0  0  0  0  0  0  0  0
    6.2570    1.3727    0.3771 C   0  0  0  0  0  0  0  0  0  0  0  0
    7.3368    1.4144    0.5612 H   0  0  0  0  0  0  0  0  0  0  0  0
    6.0595    2.1178   -0.4043 H   0  0  0  0  0  0  0  0  0  0  0  0
    5.8966   -0.0195   -0.1597 C   0  0  0  0  0  0  0  0  0  0  0  0
    6.4597   -0.2377   -1.0735 H   0  0  0  0  0  0  0  0  0  0  0  0
    4.8321   -0.0983   -0.4034 H   0  0  0  0  0  0  0  0  0  0  0  0
    6.1302   -0.8072    0.5643 H   0  0  0  0  0  0  0  0  0  0  0  0
  1  2  1  0  0  0  0
  2  3  1  0  0  0  0
  2  4  1  0  0  0  0
  2  5  1  0  0  0  0
  5  6  1  0  0  0  0
  5  7  1  0  0  0  0
  5  8  1  0  0  0  0
  8  9  1  0  0  0  0
  8 10  1  0  0  0  0
  8 11  1  0  0  0  0
 11 12  1  0  0  0  0
 11 13  1  0  0  0  0
 11 14  1  0  0  0  0
 14 15  1  0  0  0  0
 14 16  1  0  0  0  0
 14 23  1  0  0  0  0
 16 17  1  0  0  0  0
 16 18  1  0  0  0  0
 16 19  1  0  0  0  0
 19 20  1  0  0  0  0
 19 21  1  0  0  0  0
 19 22  1  0  0  0  0
 23 24  1  0  0  0  0
 23 25  1  0  0  0  0
 23 26  1  0  0  0  0
 26 27  1  0  0  0  0
 26 28  1  0  0  0  0
 26 29  1  0  0  0  0
M  END
$$$$
