
  -OEChem-08192616593D

 32 31  0     0  0  0  0  0  0999 V2000
    1.3941    0.6554    4.6965 H   0  0  0  0  0  0  0  0  0  0  0  0
    2.0717   -0.1388    4.3617 C   0  0  0  0  0  0  0  0  0  0  0  0
    3.0379    0.0181    4.8536 H   0  0  0  0  0  0  0  0  0  0  0  0
    1.6656   -1.0918    4.7204 H   0  0  0  0  0  0  0  0  0  0  0  0
    2.2113   -0.1379    2.8351 C   0  0  0  0  0  0  0  0  0  0  0  0
    2.9195   -0.9202    2.5314 H   0  0  0  0  0  0  0  0  0  0  0  0
    2.6502    0.8140    2.5079 H   0  0  0  0  0  0  0  0  0  0  0  0
    0.8782   -0.3546    2.1096 C   0  0  0  0  0  0  0  0  0  0  0  0
    0.1693    0.4282    2.4140 H   0  0  0  0  0  0  0  0  0  0  0  0
    0.4379   -1.3065    2.4380 H   0  0  0  0  0  0  0  0  0  0  0  0
    1.0086   -0.3550    0.5815 C   0  0  0  0  0  0  0  0  0  0  0  0
    1.7104   -1.1448    0.2857 H   0  0  0  0  0  0  0  0  0  0  0  0
    1.4602    0.5929    0.2655 H   0  0  0  0  0  0  0  0  0  0  0  0
   -0.3405   -0.5585   -0.1207 C   0  0  0  0  0  0  0  0  0  0  0  0
   -0.7907   -1.4796    0.2693 H   0  0  0  0  0  0  0  0  0  0  0  0
   -1.0148    0.2574    0.1764 H   0  0  0  0  0  0  0  0  0  0  0  0
   -0.3194   -0.6322   -1.6673 C   0  0  0  0  0  0  0  0  0  0  0  0
    0.3265    0.6366   -2.2573 C   0  0  0  0  0  0  0  0  0  0  0  0
    0.2603    0.6310   -3.3515 H   0  0  0  0  0  0  0  0  0  0  0  0
    1.3856    0.7156   -1.9937 H   0  0  0  0  0  0  0  0  0  0  0  0
   -0.1783    1.5411   -1.8972 H   0  0  0  0  0  0  0  0  0  0  0  0
    0.4744   -1.8641   -2.1439 C   0  0  0  0  0  0  0  0  0  0  0  0
    0.3961   -1.9792   -3.2314 H   0  0  0  0  0  0  0  0  0  0  0  0
    0.1087   -2.7872   -1.6821 H   0  0  0  0  0  0  0  0  0  0  0  0
    1.5375   -1.7729   -1.9004 H   0  0  0  0  0  0  0  0  0  0  0  0
   -1.7748   -0.6991   -2.2000 C   0  0  0  0  0  0  0  0  0  0  0  0
   -2.2887    0.2272   -1.9097 H   0  0  0  0  0  0  0  0  0  0  0  0
   -1.7338   -0.6902   -3.2974 H   0  0  0  0  0  0  0  0  0  0  0  0
   -2.6246   -1.8957   -1.7528 C   0  0  0  0  0  0  0  0  0  0  0  0
   -3.6162   -1.8485   -2.2162 H   0  0  0  0  0  0  0  0  0  0  0  0
   -2.7733   -1.9140   -0.6689 H   0  0  0  0  0  0  0  0  0  0  0  0
   -2.1736   -2.8493   -2.0455 H   0  0  0  0  0  0  0  0  0  0  0  0
  1  2  1  0  0  0  0
  2  3  1  0  0  0  0
  2  4  1  0  0  0  0
  2  5  1  0  0  0  0
  5  6  1  0  0  0  0
  5  7  1  0  0  0  0
  5  8  1  0  0  0  0
  8  9  1  0  0  0  0
  8 10  1  0  0  0  0
  8 11  1  0  0  0  0
 11 12  1  0  0  0  0
 11 13  1  0  0  0  0
 11 14  1  0  0  0  0
 14 15  1  0  0  0  0
 14 16  1  0  0  0  0
 14 17  1  0  0  0  0
 17 18  1  0  0  0  0
 17 22  1  0  0  0  0
 17 26  1  0  0  0  0
 18 19  1  0  0  0  0
 18 20  1  0  0  0  0
 18 21  1  0  0  0  0
 22 23  1  0  0  0  0
 22 24  1  0  0  0  0
 22 25  1  0  0  0  0
 26 27  1  0  0  0  0
 26 28  1  0  0  0  0
 26 29  1  0  0  0  0
 29 30  1  0  0  0  0
 29 31  1  0  0  0  0
 29 32  1  0  0  0  0
M  END
$$$$
