
  -OEChem-08192616593D

 29 28  0     0  0  0  0  0  0999 V2000
    1.2021    3.9267    3.9530 H   0  0  0  0  0  0  0  0  0  0  0  0
    0.8146    3.0111    3.4910 C   0  0  0  0  0  0  0  0  0  0  0  0
   -0.2291    3.1938    3.2129 H   0  0  0  0  0  0  0  0  0  0  0  0
    0.8234    2.2264    4.2565 H   0  0  0  0  0  0  0  0  0  0  0  0
    1.6577    2.6067    2.2764 C   0  0  0  0  0  0  0  0  0  0  0  0
    1.2287    1.7068    1.8158 H   0  0  0  0  0  0  0  0  0  0  0  0
    1.6038    3.3944    1.5134 H   0  0  0  0  0  0  0  0  0  0  0  0
    3.1268    2.3413    2.6270 C   0  0  0  0  0  0  0  0  0  0  0  0
    3.1700    1.5676    3.4036 H   0  0  0  0  0  0  0  0  0  0  0  0
    3.5615    3.2463    3.0747 H   0  0  0  0  0  0  0  0  0  0  0  0
    3.9653    1.9211    1.4139 C   0  0  0  0  0  0  0  0  0  0  0  0
    3.8166    2.6641    0.6214 H   0  0  0  0  0  0  0  0  0  0  0  0
    3.5752    0.9757    1.0129 H   0  0  0  0  0  0  0  0  0  0  0  0
    5.4758    1.7802    1.6832 C   0  0  0  0  0  0  0  0  0  0  0  0
    5.8446    2.7702    1.9927 H   0  0  0  0  0  0  0  0  0  0  0  0
    5.7970    0.8152    2.8455 C   0  0  0  0  0  0  0  0  0  0  0  0
    6.8863    0.7919    2.9795 H   0  0  0  0  0  0  0  0  0  0  0  0
    5.3917    1.2261    3.7772 H   0  0  0  0  0  0  0  0  0  0  0  0
    5.2849   -0.6212    2.6718 C   0  0  0  0  0  0  0  0  0  0  0  0
    5.5755   -1.2398    3.5278 H   0  0  0  0  0  0  0  0  0  0  0  0
    5.6925   -1.0935    1.7722 H   0  0  0  0  0  0  0  0  0  0  0  0
    4.1928   -0.6565    2.5988 H   0  0  0  0  0  0  0  0  0  0  0  0
    6.2480    1.3925    0.4056 C   0  0  0  0  0  0  0  0  0  0  0  0
    5.8497    0.4515    0.0054 H   0  0  0  0  0  0  0  0  0  0  0  0
    7.2914    1.1891    0.6801 H   0  0  0  0  0  0  0  0  0  0  0  0
    6.2300    2.4562   -0.6999 C   0  0  0  0  0  0  0  0  0  0  0  0
    6.8777    2.1636   -1.5336 H   0  0  0  0  0  0  0  0  0  0  0  0
    6.5891    3.4215   -0.3231 H   0  0  0  0  0  0  0  0  0  0  0  0
    5.2259    2.6112   -1.1065 H   0  0  0  0  0  0  0  0  0  0  0  0
  1  2  1  0  0  0  0
  2  3  1  0  0  0  0
  2  4  1  0  0  0  0
  2  5  1  0  0  0  0
  5  6  1  0  0  0  0
  5  7  1  0  0  0  0
  5  8  1  0  0  0  0
  8  9  1  0  0  0  0
  8 10  1  0  0  0  0
  8 11  1  0  0  0  0
 11 12  1  0  0  0  0
 11 13  1  0  0  0  0
 11 14  1  0  0  0  0
 14 15  1  0  0  0  0
 14 16  1  0  0  0  0
 14 23  1  0  0  0  0
 16 17  1  0  0  0  0
 16 18  1  0  0  0  0
 16 19  1  0  0  0  0
 19 20  1  0  0  0  0
 19 21  1  0  0  0  0
 19 22  1  0  0  0  0
 23 24  1  0  0  0  0
 23 25  1  0  0  0  0
 23 26  1  0  0  0  0
 26 27  1  0  0  0  0
 26 28  1  0  0  0  0
 26 29  1  0  0  0  0
M  END
$$$$
