
  -OEChem-08192616593D

 32 31  0     0  0  0  0  0  0999 V2000
    1.5517    0.7294    4.6262 H   0  0  0  0  0  0  0  0  0  0  0  0
    2.0975   -0.1754    4.3342 C   0  0  0  0  0  0  0  0  0  0  0  0
    3.0811   -0.1412    4.8154 H   0  0  0  0  0  0  0  0  0  0  0  0
    1.5549   -1.0349    4.7449 H   0  0  0  0  0  0  0  0  0  0  0  0
    2.2208   -0.2777    2.8097 C   0  0  0  0  0  0  0  0  0  0  0  0
    2.7980   -1.1745    2.5479 H   0  0  0  0  0  0  0  0  0  0  0  0
    2.7968    0.5768    2.4304 H   0  0  0  0  0  0  0  0  0  0  0  0
    0.8632   -0.3263    2.0989 C   0  0  0  0  0  0  0  0  0  0  0  0
    0.2843    0.5700    2.3620 H   0  0  0  0  0  0  0  0  0  0  0  0
    0.2865   -1.1816    2.4783 H   0  0  0  0  0  0  0  0  0  0  0  0
    0.9770   -0.4275    0.5730 C   0  0  0  0  0  0  0  0  0  0  0  0
    1.5651   -1.3184    0.3201 H   0  0  0  0  0  0  0  0  0  0  0  0
    1.5483    0.4320    0.2015 H   0  0  0  0  0  0  0  0  0  0  0  0
   -0.3925   -0.4891   -0.1147 C   0  0  0  0  0  0  0  0  0  0  0  0
   -0.9431   -1.3525    0.2803 H   0  0  0  0  0  0  0  0  0  0  0  0
   -0.9756    0.3931    0.1836 H   0  0  0  0  0  0  0  0  0  0  0  0
   -0.3951   -0.5598   -1.6617 C   0  0  0  0  0  0  0  0  0  0  0  0
   -1.8575   -0.6866   -2.1312 C   0  0  0  0  0  0  0  0  0  0  0  0
   -1.9163   -0.7580   -3.2237 H   0  0  0  0  0  0  0  0  0  0  0  0
   -2.4409    0.1884   -1.8223 H   0  0  0  0  0  0  0  0  0  0  0  0
   -2.3461   -1.5709   -1.7096 H   0  0  0  0  0  0  0  0  0  0  0  0
    0.1901    0.7362   -2.2559 C   0  0  0  0  0  0  0  0  0  0  0  0
    0.1167    0.7291   -3.3496 H   0  0  0  0  0  0  0  0  0  0  0  0
    1.2468    0.8621   -1.9991 H   0  0  0  0  0  0  0  0  0  0  0  0
   -0.3520    1.6167   -1.8911 H   0  0  0  0  0  0  0  0  0  0  0  0
    0.4403   -1.7523   -2.1905 C   0  0  0  0  0  0  0  0  0  0  0  0
    0.3657   -1.7563   -3.2861 H   0  0  0  0  0  0  0  0  0  0  0  0
    1.4982   -1.5693   -1.9665 H   0  0  0  0  0  0  0  0  0  0  0  0
    0.0559   -3.1399   -1.6620 C   0  0  0  0  0  0  0  0  0  0  0  0
    0.6930   -3.9091   -2.1119 H   0  0  0  0  0  0  0  0  0  0  0  0
   -0.9816   -3.3960   -1.8991 H   0  0  0  0  0  0  0  0  0  0  0  0
    0.1761   -3.2106   -0.5761 H   0  0  0  0  0  0  0  0  0  0  0  0
  1  2  1  0  0  0  0
  2  3  1  0  0  0  0
  2  4  1  0  0  0  0
  2  5  1  0  0  0  0
  5  6  1  0  0  0  0
  5  7  1  0  0  0  0
  5  8  1  0  0  0  0
  8  9  1  0  0  0  0
  8 10  1  0  0  0  0
  8 11  1  0  0  0  0
 11 12  1  0  0  0  0
 11 13  1  0  0  0  0
 11 14  1  0  0  0  0
 14 15  1  0  0  0  0
 14 16  1  0  0  0  0
 14 17  1  0  0  0  0
 17 18  1  0  0  0  0
 17 22  1  0  0  0  0
 17 26  1  0  0  0  0
 18 19  1  0  0  0  0
 18 20  1  0  0  0  0
 18 21  1  0  0  0  0
 22 23  1  0  0  0  0
 22 24  1  0  0  0  0
 22 25  1  0  0  0  0
 26 27  1  0  0  0  0
 26 28  1  0  0  0  0
 26 29  1  0  0  0  0
 29 30  1  0  0  0  0
 29 31  1  0  0  0  0
 29 32  1  0  0  0  0
M  END
$$$$
