
  -OEChem-08192616593D

 29 28  0     0  0  0  0  0  0999 V2000
    2.0356    3.8612   -1.8175 H   0  0  0  0  0  0  0  0  0  0  0  0
    1.7081    4.1977   -0.8269 C   0  0  0  0  0  0  0  0  0  0  0  0
    0.6236    4.3472   -0.8674 H   0  0  0  0  0  0  0  0  0  0  0  0
    2.1725    5.1730   -0.6397 H   0  0  0  0  0  0  0  0  0  0  0  0
    2.0959    3.1851    0.2565 C   0  0  0  0  0  0  0  0  0  0  0  0
    1.7245    3.5298    1.2306 H   0  0  0  0  0  0  0  0  0  0  0  0
    1.5938    2.2282    0.0607 H   0  0  0  0  0  0  0  0  0  0  0  0
    3.6089    2.9512    0.3464 C   0  0  0  0  0  0  0  0  0  0  0  0
    4.1109    3.9065    0.5563 H   0  0  0  0  0  0  0  0  0  0  0  0
    3.9745    2.6249   -0.6353 H   0  0  0  0  0  0  0  0  0  0  0  0
    3.9937    1.9266    1.4199 C   0  0  0  0  0  0  0  0  0  0  0  0
    3.5626    0.9508    1.1592 H   0  0  0  0  0  0  0  0  0  0  0  0
    3.5182    2.2161    2.3669 H   0  0  0  0  0  0  0  0  0  0  0  0
    5.5062    1.7734    1.6734 C   0  0  0  0  0  0  0  0  0  0  0  0
    5.8797    2.7550    2.0033 H   0  0  0  0  0  0  0  0  0  0  0  0
    5.7403    0.7881    2.8361 C   0  0  0  0  0  0  0  0  0  0  0  0
    5.1668    1.1436    3.7018 H   0  0  0  0  0  0  0  0  0  0  0  0
    5.3146   -0.1906    2.5801 H   0  0  0  0  0  0  0  0  0  0  0  0
    7.2060    0.6130    3.2508 C   0  0  0  0  0  0  0  0  0  0  0  0
    7.2855   -0.0029    4.1532 H   0  0  0  0  0  0  0  0  0  0  0  0
    7.6747    1.5807    3.4663 H   0  0  0  0  0  0  0  0  0  0  0  0
    7.7980    0.1252    2.4698 H   0  0  0  0  0  0  0  0  0  0  0  0
    6.3025    1.4108    0.4018 C   0  0  0  0  0  0  0  0  0  0  0  0
    7.3718    1.4110    0.6420 H   0  0  0  0  0  0  0  0  0  0  0  0
    6.1708    2.2089   -0.3375 H   0  0  0  0  0  0  0  0  0  0  0  0
    5.9340    0.0672   -0.2410 C   0  0  0  0  0  0  0  0  0  0  0  0
    6.5438   -0.1145   -1.1325 H   0  0  0  0  0  0  0  0  0  0  0  0
    4.8840    0.0391   -0.5508 H   0  0  0  0  0  0  0  0  0  0  0  0
    6.0983   -0.7707    0.4448 H   0  0  0  0  0  0  0  0  0  0  0  0
  1  2  1  0  0  0  0
  2  3  1  0  0  0  0
  2  4  1  0  0  0  0
  2  5  1  0  0  0  0
  5  6  1  0  0  0  0
  5  7  1  0  0  0  0
  5  8  1  0  0  0  0
  8  9  1  0  0  0  0
  8 10  1  0  0  0  0
  8 11  1  0  0  0  0
 11 12  1  0  0  0  0
 11 13  1  0  0  0  0
 11 14  1  0  0  0  0
 14 15  1  0  0  0  0
 14 16  1  0  0  0  0
 14 23  1  0  0  0  0
 16 17  1  0  0  0  0
 16 18  1  0  0  0  0
 16 19  1  0  0  0  0
 19 20  1  0  0  0  0
 19 21  1  0  0  0  0
 19 22  1  0  0  0  0
 23 24  1  0  0  0  0
 23 25  1  0  0  0  0
 23 26  1  0  0  0  0
 26 27  1  0  0  0  0
 26 28  1  0  0  0  0
 26 29  1  0  0  0  0
M  END
$$$$
