
  -OEChem-08192616593D

 32 31  0     0  0  0  0  0  0999 V2000
    1.2021   -1.1272    4.7480 H   0  0  0  0  0  0  0  0  0  0  0  0
    0.1974   -1.3226    4.3552 C   0  0  0  0  0  0  0  0  0  0  0  0
   -0.1841   -2.2239    4.8475 H   0  0  0  0  0  0  0  0  0  0  0  0
   -0.4423   -0.4837    4.6537 H   0  0  0  0  0  0  0  0  0  0  0  0
    0.2212   -1.4822    2.8308 C   0  0  0  0  0  0  0  0  0  0  0  0
   -0.7903   -1.7143    2.4777 H   0  0  0  0  0  0  0  0  0  0  0  0
    0.8457   -2.3448    2.5612 H   0  0  0  0  0  0  0  0  0  0  0  0
    0.7532   -0.2347    2.1128 C   0  0  0  0  0  0  0  0  0  0  0  0
    1.7360    0.0181    2.5332 H   0  0  0  0  0  0  0  0  0  0  0  0
    0.0981    0.6188    2.3384 H   0  0  0  0  0  0  0  0  0  0  0  0
    0.8911   -0.3802    0.5890 C   0  0  0  0  0  0  0  0  0  0  0  0
    1.5517   -1.2289    0.3722 H   0  0  0  0  0  0  0  0  0  0  0  0
    1.4004    0.5104    0.2029 H   0  0  0  0  0  0  0  0  0  0  0  0
   -0.4503   -0.5591   -0.1348 C   0  0  0  0  0  0  0  0  0  0  0  0
   -0.9323   -1.4793    0.2177 H   0  0  0  0  0  0  0  0  0  0  0  0
   -1.1192    0.2584    0.1648 H   0  0  0  0  0  0  0  0  0  0  0  0
   -0.4009   -0.6232   -1.6816 C   0  0  0  0  0  0  0  0  0  0  0  0
    0.3939   -1.8622   -2.1376 C   0  0  0  0  0  0  0  0  0  0  0  0
    0.3633   -1.9629   -3.2288 H   0  0  0  0  0  0  0  0  0  0  0  0
   -0.0240   -2.7794   -1.7061 H   0  0  0  0  0  0  0  0  0  0  0  0
    1.4464   -1.8016   -1.8430 H   0  0  0  0  0  0  0  0  0  0  0  0
   -1.8465   -0.7602   -2.1983 C   0  0  0  0  0  0  0  0  0  0  0  0
   -1.8723   -0.7935   -3.2939 H   0  0  0  0  0  0  0  0  0  0  0  0
   -2.4769    0.0734   -1.8722 H   0  0  0  0  0  0  0  0  0  0  0  0
   -2.3057   -1.6832   -1.8258 H   0  0  0  0  0  0  0  0  0  0  0  0
    0.2664    0.6317   -2.2989 C   0  0  0  0  0  0  0  0  0  0  0  0
    1.3347    0.6240   -2.0516 H   0  0  0  0  0  0  0  0  0  0  0  0
    0.2156    0.5355   -3.3916 H   0  0  0  0  0  0  0  0  0  0  0  0
   -0.3249    1.9868   -1.8911 C   0  0  0  0  0  0  0  0  0  0  0  0
    0.1945    2.8006   -2.4087 H   0  0  0  0  0  0  0  0  0  0  0  0
   -0.2255    2.1678   -0.8160 H   0  0  0  0  0  0  0  0  0  0  0  0
   -1.3870    2.0642   -2.1446 H   0  0  0  0  0  0  0  0  0  0  0  0
  1  2  1  0  0  0  0
  2  3  1  0  0  0  0
  2  4  1  0  0  0  0
  2  5  1  0  0  0  0
  5  6  1  0  0  0  0
  5  7  1  0  0  0  0
  5  8  1  0  0  0  0
  8  9  1  0  0  0  0
  8 10  1  0  0  0  0
  8 11  1  0  0  0  0
 11 12  1  0  0  0  0
 11 13  1  0  0  0  0
 11 14  1  0  0  0  0
 14 15  1  0  0  0  0
 14 16  1  0  0  0  0
 14 17  1  0  0  0  0
 17 18  1  0  0  0  0
 17 22  1  0  0  0  0
 17 26  1  0  0  0  0
 18 19  1  0  0  0  0
 18 20  1  0  0  0  0
 18 21  1  0  0  0  0
 22 23  1  0  0  0  0
 22 24  1  0  0  0  0
 22 25  1  0  0  0  0
 26 27  1  0  0  0  0
 26 28  1  0  0  0  0
 26 29  1  0  0  0  0
 29 30  1  0  0  0  0
 29 31  1  0  0  0  0
 29 32  1  0  0  0  0
M  END
$$$$
