
  -OEChem-08192616593D

 29 28  0     0  0  0  0  0  0999 V2000
    1.0561   -1.0177    0.9753 H   0  0  0  0  0  0  0  0  0  0  0  0
    1.0071   -0.2201    0.2248 C   0  0  0  0  0  0  0  0  0  0  0  0
   -0.0502   -0.0004    0.0404 H   0  0  0  0  0  0  0  0  0  0  0  0
    1.4327   -0.6156   -0.7050 H   0  0  0  0  0  0  0  0  0  0  0  0
    1.7669    1.0259    0.6933 C   0  0  0  0  0  0  0  0  0  0  0  0
    1.6729    1.8183   -0.0612 H   0  0  0  0  0  0  0  0  0  0  0  0
    1.3002    1.4185    1.6065 H   0  0  0  0  0  0  0  0  0  0  0  0
    3.2530    0.7582    0.9611 C   0  0  0  0  0  0  0  0  0  0  0  0
    3.7135    0.3632    0.0464 H   0  0  0  0  0  0  0  0  0  0  0  0
    3.3411   -0.0368    1.7128 H   0  0  0  0  0  0  0  0  0  0  0  0
    4.0055    2.0099    1.4299 C   0  0  0  0  0  0  0  0  0  0  0  0
    3.5191    2.3976    2.3331 H   0  0  0  0  0  0  0  0  0  0  0  0
    3.8849    2.7980    0.6768 H   0  0  0  0  0  0  0  0  0  0  0  0
    5.5095    1.8192    1.7159 C   0  0  0  0  0  0  0  0  0  0  0  0
    5.8894    2.8012    2.0379 H   0  0  0  0  0  0  0  0  0  0  0  0
    5.7891    0.8293    2.8644 C   0  0  0  0  0  0  0  0  0  0  0  0
    5.4996   -0.1831    2.5555 H   0  0  0  0  0  0  0  0  0  0  0  0
    6.8745    0.7926    3.0237 H   0  0  0  0  0  0  0  0  0  0  0  0
    5.1045    1.1713    4.1930 C   0  0  0  0  0  0  0  0  0  0  0  0
    5.4386    0.4975    4.9894 H   0  0  0  0  0  0  0  0  0  0  0  0
    4.0152    1.0841    4.1269 H   0  0  0  0  0  0  0  0  0  0  0  0
    5.3364    2.1966    4.5055 H   0  0  0  0  0  0  0  0  0  0  0  0
    6.3185    1.4101    0.4687 C   0  0  0  0  0  0  0  0  0  0  0  0
    6.0312    0.3967    0.1606 H   0  0  0  0  0  0  0  0  0  0  0  0
    7.3756    1.3449    0.7567 H   0  0  0  0  0  0  0  0  0  0  0  0
    6.1882    2.3614   -0.7267 C   0  0  0  0  0  0  0  0  0  0  0  0
    6.8773    2.0768   -1.5293 H   0  0  0  0  0  0  0  0  0  0  0  0
    6.4212    3.3935   -0.4386 H   0  0  0  0  0  0  0  0  0  0  0  0
    5.1773    2.3554   -1.1467 H   0  0  0  0  0  0  0  0  0  0  0  0
  1  2  1  0  0  0  0
  2  3  1  0  0  0  0
  2  4  1  0  0  0  0
  2  5  1  0  0  0  0
  5  6  1  0  0  0  0
  5  7  1  0  0  0  0
  5  8  1  0  0  0  0
  8  9  1  0  0  0  0
  8 10  1  0  0  0  0
  8 11  1  0  0  0  0
 11 12  1  0  0  0  0
 11 13  1  0  0  0  0
 11 14  1  0  0  0  0
 14 15  1  0  0  0  0
 14 16  1  0  0  0  0
 14 23  1  0  0  0  0
 16 17  1  0  0  0  0
 16 18  1  0  0  0  0
 16 19  1  0  0  0  0
 19 20  1  0  0  0  0
 19 21  1  0  0  0  0
 19 22  1  0  0  0  0
 23 24  1  0  0  0  0
 23 25  1  0  0  0  0
 23 26  1  0  0  0  0
 26 27  1  0  0  0  0
 26 28  1  0  0  0  0
 26 29  1  0  0  0  0
M  END
$$$$
