
  -OEChem-08192616593D

 29 28  0     0  0  0  0  0  0999 V2000
    2.1035    3.8186   -1.8864 H   0  0  0  0  0  0  0  0  0  0  0  0
    1.7347    4.1639   -0.9135 C   0  0  0  0  0  0  0  0  0  0  0  0
    0.6515    4.3035   -0.9981 H   0  0  0  0  0  0  0  0  0  0  0  0
    2.1836    5.1452   -0.7201 H   0  0  0  0  0  0  0  0  0  0  0  0
    2.0883    3.1673    0.1962 C   0  0  0  0  0  0  0  0  0  0  0  0
    1.6771    3.5201    1.1512 H   0  0  0  0  0  0  0  0  0  0  0  0
    1.6017    2.2041   -0.0076 H   0  0  0  0  0  0  0  0  0  0  0  0
    3.5984    2.9466    0.3460 C   0  0  0  0  0  0  0  0  0  0  0  0
    4.0849    3.9077    0.5652 H   0  0  0  0  0  0  0  0  0  0  0  0
    4.0037    2.6139   -0.6177 H   0  0  0  0  0  0  0  0  0  0  0  0
    3.9497    1.9365    1.4450 C   0  0  0  0  0  0  0  0  0  0  0  0
    3.5267    0.9564    1.1859 H   0  0  0  0  0  0  0  0  0  0  0  0
    3.4431    2.2446    2.3673 H   0  0  0  0  0  0  0  0  0  0  0  0
    5.4557    1.7856    1.7342 C   0  0  0  0  0  0  0  0  0  0  0  0
    5.8200    2.7655    2.0792 H   0  0  0  0  0  0  0  0  0  0  0  0
    5.7179    0.7813    2.8749 C   0  0  0  0  0  0  0  0  0  0  0  0
    5.2794   -0.1914    2.6178 H   0  0  0  0  0  0  0  0  0  0  0  0
    6.8008    0.6168    2.9497 H   0  0  0  0  0  0  0  0  0  0  0  0
    5.1930    1.2222    4.2475 C   0  0  0  0  0  0  0  0  0  0  0  0
    5.4920    0.5122    5.0263 H   0  0  0  0  0  0  0  0  0  0  0  0
    4.1009    1.2886    4.2693 H   0  0  0  0  0  0  0  0  0  0  0  0
    5.5916    2.2059    4.5236 H   0  0  0  0  0  0  0  0  0  0  0  0
    6.2819    1.4338    0.4777 C   0  0  0  0  0  0  0  0  0  0  0  0
    7.3378    1.3675    0.7704 H   0  0  0  0  0  0  0  0  0  0  0  0
    6.2229    2.2632   -0.2363 H   0  0  0  0  0  0  0  0  0  0  0  0
    5.8795    0.1350   -0.2344 C   0  0  0  0  0  0  0  0  0  0  0  0
    6.5283   -0.0478   -1.0978 H   0  0  0  0  0  0  0  0  0  0  0  0
    4.8491    0.1766   -0.6027 H   0  0  0  0  0  0  0  0  0  0  0  0
    5.9603   -0.7340    0.4266 H   0  0  0  0  0  0  0  0  0  0  0  0
  1  2  1  0  0  0  0
  2  3  1  0  0  0  0
  2  4  1  0  0  0  0
  2  5  1  0  0  0  0
  5  6  1  0  0  0  0
  5  7  1  0  0  0  0
  5  8  1  0  0  0  0
  8  9  1  0  0  0  0
  8 10  1  0  0  0  0
  8 11  1  0  0  0  0
 11 12  1  0  0  0  0
 11 13  1  0  0  0  0
 11 14  1  0  0  0  0
 14 15  1  0  0  0  0
 14 16  1  0  0  0  0
 14 23  1  0  0  0  0
 16 17  1  0  0  0  0
 16 18  1  0  0  0  0
 16 19  1  0  0  0  0
 19 20  1  0  0  0  0
 19 21  1  0  0  0  0
 19 22  1  0  0  0  0
 23 24  1  0  0  0  0
 23 25  1  0  0  0  0
 23 26  1  0  0  0  0
 26 27  1  0  0  0  0
 26 28  1  0  0  0  0
 26 29  1  0  0  0  0
M  END
$$$$
