
  -OEChem-08192616593D

 14 13  0     0  0  0  0  0  0999 V2000
    0.6542    0.4852    0.4356 C   0  0  0  0  0  0  0  0  0  0  0  0
    1.7181   -0.5011   -0.0723 C   0  0  0  0  0  0  0  0  0  0  0  0
   -0.1068    1.2155   -0.6786 C   0  0  0  0  0  0  0  0  0  0  0  0
    1.1325    1.2225    1.0946 H   0  0  0  0  0  0  0  0  0  0  0  0
   -0.0642   -0.0616    1.0593 H   0  0  0  0  0  0  0  0  0  0  0  0
    2.8680    0.1590   -0.8441 C   0  0  0  0  0  0  0  0  0  0  0  0
    2.1310   -1.0468    0.7856 H   0  0  0  0  0  0  0  0  0  0  0  0
    1.2354   -1.2539   -0.7102 H   0  0  0  0  0  0  0  0  0  0  0  0
    2.5185    0.6387   -1.7641 H   0  0  0  0  0  0  0  0  0  0  0  0
    3.3595    0.9273   -0.2351 H   0  0  0  0  0  0  0  0  0  0  0  0
    3.6275   -0.5781   -1.1266 H   0  0  0  0  0  0  0  0  0  0  0  0
   -0.5829    0.5017   -1.3616 H   0  0  0  0  0  0  0  0  0  0  0  0
    0.5551    1.8529   -1.2738 H   0  0  0  0  0  0  0  0  0  0  0  0
   -0.8935    1.8555   -0.2646 H   0  0  0  0  0  0  0  0  0  0  0  0
  1  2  1  0  0  0  0
  1  3  1  0  0  0  0
  1  4  1  0  0  0  0
  1  5  1  0  0  0  0
  2  6  1  0  0  0  0
  2  7  1  0  0  0  0
  2  8  1  0  0  0  0
  3 12  1  0  0  0  0
  3 13  1  0  0  0  0
  3 14  1  0  0  0  0
  6  9  1  0  0  0  0
  6 10  1  0  0  0  0
  6 11  1  0  0  0  0
M  END
$$$$
