
  -OEChem-08192616593D

 14 13  0     0  0  0  0  0  0999 V2000
    0.9948    0.9974   -0.0014 C   0  0  0  0  0  0  0  0  0  0  0  0
    1.5984   -0.2236   -0.7066 C   0  0  0  0  0  0  0  0  0  0  0  0
   -0.5381    0.9936    0.0025 C   0  0  0  0  0  0  0  0  0  0  0  0
    1.3645    1.0359    1.0321 H   0  0  0  0  0  0  0  0  0  0  0  0
    1.3585    1.9117   -0.4894 H   0  0  0  0  0  0  0  0  0  0  0  0
    3.1313   -0.2198   -0.7105 C   0  0  0  0  0  0  0  0  0  0  0  0
    1.2347   -1.1378   -0.2187 H   0  0  0  0  0  0  0  0  0  0  0  0
    1.2287   -0.2620   -1.7401 H   0  0  0  0  0  0  0  0  0  0  0  0
    3.5336   -1.1021   -1.2200 H   0  0  0  0  0  0  0  0  0  0  0  0
    3.5225    0.6679   -1.2213 H   0  0  0  0  0  0  0  0  0  0  0  0
    3.5285   -0.2144    0.3114 H   0  0  0  0  0  0  0  0  0  0  0  0
   -0.9293    0.1060    0.5134 H   0  0  0  0  0  0  0  0  0  0  0  0
   -0.9404    1.8760    0.5120 H   0  0  0  0  0  0  0  0  0  0  0  0
   -0.9354    0.9882   -1.0193 H   0  0  0  0  0  0  0  0  0  0  0  0
  1  2  1  0  0  0  0
  1  3  1  0  0  0  0
  1  4  1  0  0  0  0
  1  5  1  0  0  0  0
  2  6  1  0  0  0  0
  2  7  1  0  0  0  0
  2  8  1  0  0  0  0
  3 12  1  0  0  0  0
  3 13  1  0  0  0  0
  3 14  1  0  0  0  0
  6  9  1  0  0  0  0
  6 10  1  0  0  0  0
  6 11  1  0  0  0  0
M  END
$$$$
