
  -OEChem-08192616593D

 11 10  0     0  0  0  0  0  0999 V2000
    1.0000    1.0001   -0.0000 C   0  0  0  0  0  0  0  0  0  0  0  0
    1.5727    1.0010    1.4223 C   0  0  0  0  0  0  0  0  0  0  0  0
    2.0465    0.6361   -1.0600 C   0  0  0  0  0  0  0  0  0  0  0  0
    0.5810    1.9889   -0.2253 H   0  0  0  0  0  0  0  0  0  0  0  0
    0.1627    0.2930   -0.0559 H   0  0  0  0  0  0  0  0  0  0  0  0
    1.9707    0.0142    1.6872 H   0  0  0  0  0  0  0  0  0  0  0  0
    2.3924    1.7231    1.5164 H   0  0  0  0  0  0  0  0  0  0  0  0
    0.8096    1.2633    2.1633 H   0  0  0  0  0  0  0  0  0  0  0  0
    1.6172    0.6417   -2.0679 H   0  0  0  0  0  0  0  0  0  0  0  0
    2.8821    1.3459   -1.0484 H   0  0  0  0  0  0  0  0  0  0  0  0
    2.4600   -0.3630   -0.8782 H   0  0  0  0  0  0  0  0  0  0  0  0
  1  2  1  0  0  0  0
  1  3  1  0  0  0  0
  1  4  1  0  0  0  0
  1  5  1  0  0  0  0
  2  6  1  0  0  0  0
  2  7  1  0  0  0  0
  2  8  1  0  0  0  0
  3  9  1  0  0  0  0
  3 10  1  0  0  0  0
  3 11  1  0  0  0  0
M  END
$$$$
