
  -OEChem-08192616593D

  5  4  0     0  0  0  0  0  0999 V2000
    1.0000    1.0000    0.0000 C   0  0  0  0  0  0  0  0  0  0  0  0
    1.3640    1.7289   -0.7289 H   0  0  0  0  0  0  0  0  0  0  0  0
    1.3645    0.0045   -0.2669 H   0  0  0  0  0  0  0  0  0  0  0  0
    1.3647    1.2667    0.9955 H   0  0  0  0  0  0  0  0  0  0  0  0
   -0.0932    0.9998    0.0004 H   0  0  0  0  0  0  0  0  0  0  0  0
  1  2  1  0  0  0  0
  1  3  1  0  0  0  0
  1  4  1  0  0  0  0
  1  5  1  0  0  0  0
M  END
$$$$
