
  -OEChem-08192616593D

 14 13  0     0  0  0  0  0  0999 V2000
    0.9979    1.0015    0.0027 C   0  0  0  0  0  0  0  0  0  0  0  0
   -0.5373    1.0032    0.0057 C   0  0  0  0  0  0  0  0  0  0  0  0
    1.3982    2.0217    0.0102 H   0  0  0  0  0  0  0  0  0  0  0  0
    1.3982    0.4766    0.8775 H   0  0  0  0  0  0  0  0  0  0  0  0
    1.3840    0.4988   -0.8930 H   0  0  0  0  0  0  0  0  0  0  0  0
   -1.0891   -0.4290    0.0391 C   0  0  0  0  0  0  0  0  0  0  0  0
   -1.0894    1.7778   -1.1994 C   0  0  0  0  0  0  0  0  0  0  0  0
   -0.8724    1.5154    0.9185 H   0  0  0  0  0  0  0  0  0  0  0  0
   -0.7808   -0.9850   -0.8553 H   0  0  0  0  0  0  0  0  0  0  0  0
   -2.1845   -0.4338    0.0727 H   0  0  0  0  0  0  0  0  0  0  0  0
   -0.7232   -0.9775    0.9145 H   0  0  0  0  0  0  0  0  0  0  0  0
   -2.1847    1.8089   -1.1860 H   0  0  0  0  0  0  0  0  0  0  0  0
   -0.7235    2.8107   -1.2115 H   0  0  0  0  0  0  0  0  0  0  0  0
   -0.7810    1.3040   -2.1399 H   0  0  0  0  0  0  0  0  0  0  0  0
  1  2  1  0  0  0  0
  1  3  1  0  0  0  0
  1  4  1  0  0  0  0
  1  5  1  0  0  0  0
  2  6  1  0  0  0  0
  2  7  1  0  0  0  0
  2  8  1  0  0  0  0
  6  9  1  0  0  0  0
  6 10  1  0  0  0  0
  6 11  1  0  0  0  0
  7 12  1  0  0  0  0
  7 13  1  0  0  0  0
  7 14  1  0  0  0  0
M  END
$$$$
