
  -OEChem-08192616593D

 18 17  0     0  0  0  0  0  0999 V2000
    0.1602    4.2879   -0.3045 C   0  0  0  0  0  0  0  0  0  0  0  0
    0.5561    2.8290   -0.0417 C   0  0  0  0  0  0  0  0  0  0  0  0
   -0.2836    1.8264   -0.8561 C   0  0  0  0  0  0  0  0  0  0  0  0
    0.1366    0.3994   -0.6228 C   0  0  0  0  0  0  0  0  0  0  0  0
   -0.5706   -0.5850   -0.0468 C   0  0  0  0  0  0  0  0  0  0  0  0
   -1.9730   -0.5148    0.4967 C   0  0  0  0  0  0  0  0  0  0  0  0
    0.9211    4.9832    0.0657 H   0  0  0  0  0  0  0  0  0  0  0  0
    0.0573    4.4735   -1.3807 H   0  0  0  0  0  0  0  0  0  0  0  0
   -0.7970    4.5387    0.1655 H   0  0  0  0  0  0  0  0  0  0  0  0
    0.4639    2.5969    1.0258 H   0  0  0  0  0  0  0  0  0  0  0  0
    1.6146    2.6859   -0.2948 H   0  0  0  0  0  0  0  0  0  0  0  0
   -0.1668    2.0642   -1.9228 H   0  0  0  0  0  0  0  0  0  0  0  0
   -1.3445    1.9685   -0.6252 H   0  0  0  0  0  0  0  0  0  0  0  0
    1.1506    0.1607   -0.9488 H   0  0  0  0  0  0  0  0  0  0  0  0
   -0.0876   -1.5584    0.0471 H   0  0  0  0  0  0  0  0  0  0  0  0
   -2.6283   -1.2227   -0.0264 H   0  0  0  0  0  0  0  0  0  0  0  0
   -1.9901   -0.7954    1.5573 H   0  0  0  0  0  0  0  0  0  0  0  0
   -2.4148    0.4801    0.4067 H   0  0  0  0  0  0  0  0  0  0  0  0
  1  2  1  0  0  0  0
  1  7  1  0  0  0  0
  1  8  1  0  0  0  0
  1  9  1  0  0  0  0
  2  3  1  0  0  0  0
  2 10  1  0  0  0  0
  2 11  1  0  0  0  0
  3  4  1  0  0  0  0
  3 12  1  0  0  0  0
  3 13  1  0  0  0  0
  4  5  2  0  0  0  0
  4 14  1  0  0  0  0
  5  6  1  0  0  0  0
  5 15  1  0  0  0  0
  6 16  1  0  0  0  0
  6 17  1  0  0  0  0
  6 18  1  0  0  0  0
M  END
> <grid_ids>
[(-165,), (-150,), (-135,), (-120,), (-105,), (-90,), (-75,), (-60,), (-45,), (-30,), (-15,), (0,), (15,), (30,), (45,), (60,), (75,), (90,), (105,), (120,), (135,), (150,), (165,), (180,)]

$$$$
