
  -OEChem-08192616593D

 15 14  0     0  0  0  0  0  0999 V2000
    1.7599    2.5856   -0.2251 C   0  0  0  0  0  0  0  0  0  0  0  0
    1.1820    1.7437    0.9272 C   0  0  0  0  0  0  0  0  0  0  0  0
    1.1472    0.2750    0.5935 C   0  0  0  0  0  0  0  0  0  0  0  0
    1.8296   -0.7191    1.1825 C   0  0  0  0  0  0  0  0  0  0  0  0
    2.7834   -0.6163    2.3448 C   0  0  0  0  0  0  0  0  0  0  0  0
    1.7409    3.6535    0.0191 H   0  0  0  0  0  0  0  0  0  0  0  0
    1.1838    2.4418   -1.1462 H   0  0  0  0  0  0  0  0  0  0  0  0
    2.7961    2.2998   -0.4337 H   0  0  0  0  0  0  0  0  0  0  0  0
    1.7626    1.9250    1.8363 H   0  0  0  0  0  0  0  0  0  0  0  0
    0.1595    2.0862    1.1370 H   0  0  0  0  0  0  0  0  0  0  0  0
    0.5024    0.0105   -0.2466 H   0  0  0  0  0  0  0  0  0  0  0  0
    1.6824   -1.7262    0.7909 H   0  0  0  0  0  0  0  0  0  0  0  0
    2.7100    0.3383    2.8712 H   0  0  0  0  0  0  0  0  0  0  0  0
    3.8224   -0.7421    2.0136 H   0  0  0  0  0  0  0  0  0  0  0  0
    2.5865   -1.4114    3.0734 H   0  0  0  0  0  0  0  0  0  0  0  0
  1  2  1  0  0  0  0
  1  6  1  0  0  0  0
  1  7  1  0  0  0  0
  1  8  1  0  0  0  0
  2  3  1  0  0  0  0
  2  9  1  0  0  0  0
  2 10  1  0  0  0  0
  3  4  2  0  0  0  0
  3 11  1  0  0  0  0
  4  5  1  0  0  0  0
  4 12  1  0  0  0  0
  5 13  1  0  0  0  0
  5 14  1  0  0  0  0
  5 15  1  0  0  0  0
M  END
> <grid_ids>
[(-165,), (-150,), (-135,), (-120,), (-105,), (-90,), (-75,), (-60,), (-45,), (-30,), (-15,), (0,), (15,), (30,), (45,), (60,), (75,), (90,), (105,), (120,), (135,), (150,), (165,), (180,)]

$$$$
