
  -OEChem-08192616593D

 15 14  0     0  0  0  0  0  0999 V2000
    1.2824    2.7634   -0.8808 C   0  0  0  0  0  0  0  0  0  0  0  0
    1.8445    1.9158    0.2679 C   0  0  0  0  0  0  0  0  0  0  0  0
    1.5803    0.4360    0.0822 C   0  0  0  0  0  0  0  0  0  0  0  0
    1.6871   -0.5204    1.0161 C   0  0  0  0  0  0  0  0  0  0  0  0
    2.0836   -0.3257    2.4552 C   0  0  0  0  0  0  0  0  0  0  0  0
    1.4906    3.8276   -0.7286 H   0  0  0  0  0  0  0  0  0  0  0  0
    0.1968    2.6415   -0.9657 H   0  0  0  0  0  0  0  0  0  0  0  0
    1.7257    2.4696   -1.8391 H   0  0  0  0  0  0  0  0  0  0  0  0
    2.9272    2.0882    0.3424 H   0  0  0  0  0  0  0  0  0  0  0  0
    1.4203    2.2604    1.2182 H   0  0  0  0  0  0  0  0  0  0  0  0
    1.2958    0.1292   -0.9253 H   0  0  0  0  0  0  0  0  0  0  0  0
    1.4726   -1.5476    0.7197 H   0  0  0  0  0  0  0  0  0  0  0  0
    1.3080   -0.7078    3.1309 H   0  0  0  0  0  0  0  0  0  0  0  0
    2.2615    0.7238    2.7018 H   0  0  0  0  0  0  0  0  0  0  0  0
    3.0013   -0.8828    2.6833 H   0  0  0  0  0  0  0  0  0  0  0  0
  1  2  1  0  0  0  0
  1  6  1  0  0  0  0
  1  7  1  0  0  0  0
  1  8  1  0  0  0  0
  2  3  1  0  0  0  0
  2  9  1  0  0  0  0
  2 10  1  0  0  0  0
  3  4  2  0  0  0  0
  3 11  1  0  0  0  0
  4  5  1  0  0  0  0
  4 12  1  0  0  0  0
  5 13  1  0  0  0  0
  5 14  1  0  0  0  0
  5 15  1  0  0  0  0
M  END
> <grid_ids>
[(-165,), (-150,), (-135,), (-120,), (-105,), (-90,), (-75,), (-60,), (-45,), (-30,), (-15,), (0,), (15,), (30,), (45,), (60,), (75,), (90,), (105,), (120,), (135,), (150,), (165,), (180,)]

$$$$
