
  -OEChem-08192616593D

 20 19  0     0  0  0  0  0  0999 V2000
   -0.7897   -0.7083   -0.2741 C   0  0  0  0  0  0  0  0  0  0  0  0
   -0.8979   -0.6851   -1.8029 C   0  0  0  0  0  0  0  0  0  0  0  0
   -1.7947   -1.7977   -2.3595 C   0  0  0  0  0  0  0  0  0  0  0  0
   -1.8829   -1.8049   -3.8915 C   0  0  0  0  0  0  0  0  0  0  0  0
   -3.0370   -2.6563   -4.4345 C   0  0  0  0  0  0  0  0  0  0  0  0
   -3.0951   -2.6840   -5.9660 C   0  0  0  0  0  0  0  0  0  0  0  0
   -0.1523    0.1023    0.0958 H   0  0  0  0  0  0  0  0  0  0  0  0
   -0.3631   -1.6550    0.0774 H   0  0  0  0  0  0  0  0  0  0  0  0
   -1.7754   -0.5973    0.1929 H   0  0  0  0  0  0  0  0  0  0  0  0
    0.1050   -0.7707   -2.2425 H   0  0  0  0  0  0  0  0  0  0  0  0
   -1.2911    0.2868   -2.1287 H   0  0  0  0  0  0  0  0  0  0  0  0
   -2.8041   -1.6765   -1.9414 H   0  0  0  0  0  0  0  0  0  0  0  0
   -1.4368   -2.7742   -2.0058 H   0  0  0  0  0  0  0  0  0  0  0  0
   -0.9319   -2.1564   -4.3144 H   0  0  0  0  0  0  0  0  0  0  0  0
   -2.0095   -0.7733   -4.2496 H   0  0  0  0  0  0  0  0  0  0  0  0
   -2.9447   -3.6820   -4.0529 H   0  0  0  0  0  0  0  0  0  0  0  0
   -3.9843   -2.2681   -4.0379 H   0  0  0  0  0  0  0  0  0  0  0  0
   -3.9339   -3.2903   -6.3252 H   0  0  0  0  0  0  0  0  0  0  0  0
   -3.2145   -1.6737   -6.3747 H   0  0  0  0  0  0  0  0  0  0  0  0
   -2.1749   -3.1040   -6.3887 H   0  0  0  0  0  0  0  0  0  0  0  0
  1  2  1  0  0  0  0
  1  7  1  0  0  0  0
  1  8  1  0  0  0  0
  1  9  1  0  0  0  0
  2  3  1  0  0  0  0
  2 10  1  0  0  0  0
  2 11  1  0  0  0  0
  3  4  1  0  0  0  0
  3 12  1  0  0  0  0
  3 13  1  0  0  0  0
  4  5  1  0  0  0  0
  4 14  1  0  0  0  0
  4 15  1  0  0  0  0
  5  6  1  0  0  0  0
  5 16  1  0  0  0  0
  5 17  1  0  0  0  0
  6 18  1  0  0  0  0
  6 19  1  0  0  0  0
  6 20  1  0  0  0  0
M  END
> <grid_ids>
[(-165,), (-150,), (-135,), (-120,), (-105,), (-90,), (-75,), (-60,), (-45,), (-30,), (-15,), (0,), (15,), (30,), (45,), (60,), (75,), (90,), (105,), (120,), (135,), (150,), (165,), (180,)]

$$$$
