
  -OEChem-08192616593D

 33 32  0     0  0  0  0  0  0999 V2000
    0.6575   -2.0337   -0.5621 H   0  0  0  0  0  0  0  0  0  0  0  0
   -0.3054   -2.3571   -0.1637 C   0  0  0  0  0  0  0  0  0  0  0  0
   -1.4091   -2.0398   -0.8560 C   0  0  0  0  0  0  0  0  0  0  0  0
   -1.2828   -1.4735   -1.7799 H   0  0  0  0  0  0  0  0  0  0  0  0
   -2.8384   -2.3613   -0.4747 C   0  0  0  0  0  0  0  0  0  0  0  0
   -3.1543   -1.7109    0.3539 H   0  0  0  0  0  0  0  0  0  0  0  0
   -2.9097   -3.3867   -0.0918 H   0  0  0  0  0  0  0  0  0  0  0  0
   -3.8202   -2.1863   -1.6408 C   0  0  0  0  0  0  0  0  0  0  0  0
   -3.5083   -2.8291   -2.4751 H   0  0  0  0  0  0  0  0  0  0  0  0
   -3.7593   -1.1539   -2.0113 H   0  0  0  0  0  0  0  0  0  0  0  0
   -5.2701   -2.5059   -1.2641 C   0  0  0  0  0  0  0  0  0  0  0  0
   -5.3313   -3.5399   -0.8966 H   0  0  0  0  0  0  0  0  0  0  0  0
   -5.5768   -1.8671   -0.4239 H   0  0  0  0  0  0  0  0  0  0  0  0
   -6.2565   -2.3234   -2.4237 C   0  0  0  0  0  0  0  0  0  0  0  0
   -6.1956   -1.2902   -2.7905 H   0  0  0  0  0  0  0  0  0  0  0  0
   -5.9506   -2.9630   -3.2621 H   0  0  0  0  0  0  0  0  0  0  0  0
   -7.7045   -2.6446   -2.0365 C   0  0  0  0  0  0  0  0  0  0  0  0
   -8.3862   -2.5072   -2.8829 H   0  0  0  0  0  0  0  0  0  0  0  0
   -7.8011   -3.6820   -1.6954 H   0  0  0  0  0  0  0  0  0  0  0  0
   -8.0486   -1.9962   -1.2223 H   0  0  0  0  0  0  0  0  0  0  0  0
   -0.2528   -3.0879    1.1516 C   0  0  0  0  0  0  0  0  0  0  0  0
   -1.2267   -3.5304    1.3859 H   0  0  0  0  0  0  0  0  0  0  0  0
    0.4608   -3.9206    1.0782 H   0  0  0  0  0  0  0  0  0  0  0  0
    0.1775   -2.1731    2.3141 C   0  0  0  0  0  0  0  0  0  0  0  0
    1.1502   -1.7199    2.0796 H   0  0  0  0  0  0  0  0  0  0  0  0
   -0.5345   -1.3416    2.3955 H   0  0  0  0  0  0  0  0  0  0  0  0
    0.2682   -2.9082    3.6562 C   0  0  0  0  0  0  0  0  0  0  0  0
   -0.7045   -3.3634    3.8853 H   0  0  0  0  0  0  0  0  0  0  0  0
    0.9803   -3.7394    3.5662 H   0  0  0  0  0  0  0  0  0  0  0  0
    0.6905   -1.9939    4.8118 C   0  0  0  0  0  0  0  0  0  0  0  0
    0.7461   -2.5430    5.7581 H   0  0  0  0  0  0  0  0  0  0  0  0
   -0.0217   -1.1712    4.9444 H   0  0  0  0  0  0  0  0  0  0  0  0
    1.6756   -1.5506    4.6247 H   0  0  0  0  0  0  0  0  0  0  0  0
  1  2  1  0  0  0  0
  2  3  2  0  0  0  0
  2 21  1  0  0  0  0
  3  4  1  0  0  0  0
  3  5  1  0  0  0  0
  5  6  1  0  0  0  0
  5  7  1  0  0  0  0
  5  8  1  0  0  0  0
  8  9  1  0  0  0  0
  8 10  1  0  0  0  0
  8 11  1  0  0  0  0
 11 12  1  0  0  0  0
 11 13  1  0  0  0  0
 11 14  1  0  0  0  0
 14 15  1  0  0  0  0
 14 16  1  0  0  0  0
 14 17  1  0  0  0  0
 17 18  1  0  0  0  0
 17 19  1  0  0  0  0
 17 20  1  0  0  0  0
 21 22  1  0  0  0  0
 21 23  1  0  0  0  0
 21 24  1  0  0  0  0
 24 25  1  0  0  0  0
 24 26  1  0  0  0  0
 24 27  1  0  0  0  0
 27 28  1  0  0  0  0
 27 29  1  0  0  0  0
 27 30  1  0  0  0  0
 30 31  1  0  0  0  0
 30 32  1  0  0  0  0
 30 33  1  0  0  0  0
M  END
> <grid_ids>
[(-165,), (-150,), (-135,), (-120,), (-105,), (-90,), (-75,), (-60,), (-45,), (-30,), (-15,), (0,), (15,), (30,), (45,), (60,), (75,), (90,), (105,), (120,), (135,), (150,), (165,), (180,)]

$$$$
