
  -OEChem-08192616593D

 18 17  0     0  0  0  0  0  0999 V2000
    0.2432    4.2918   -0.3464 C   0  0  0  0  0  0  0  0  0  0  0  0
    0.6469    2.8250   -0.1471 C   0  0  0  0  0  0  0  0  0  0  0  0
   -0.0261    1.8789   -1.1585 C   0  0  0  0  0  0  0  0  0  0  0  0
    0.3156    0.4320   -0.9246 C   0  0  0  0  0  0  0  0  0  0  0  0
    0.9772   -0.3550   -1.7828 C   0  0  0  0  0  0  0  0  0  0  0  0
    1.3341   -1.7966   -1.5409 C   0  0  0  0  0  0  0  0  0  0  0  0
    0.9156    4.9692    0.1908 H   0  0  0  0  0  0  0  0  0  0  0  0
    0.2956    4.5674   -1.4068 H   0  0  0  0  0  0  0  0  0  0  0  0
   -0.7818    4.4794   -0.0082 H   0  0  0  0  0  0  0  0  0  0  0  0
    0.4049    2.5064    0.8748 H   0  0  0  0  0  0  0  0  0  0  0  0
    1.7340    2.7216   -0.2496 H   0  0  0  0  0  0  0  0  0  0  0  0
    0.2651    2.1688   -2.1754 H   0  0  0  0  0  0  0  0  0  0  0  0
   -1.1160    2.0130   -1.0949 H   0  0  0  0  0  0  0  0  0  0  0  0
    0.0066    0.0151    0.0372 H   0  0  0  0  0  0  0  0  0  0  0  0
    1.2889    0.0657   -2.7413 H   0  0  0  0  0  0  0  0  0  0  0  0
    0.8884   -2.4484   -2.3030 H   0  0  0  0  0  0  0  0  0  0  0  0
    2.4198   -1.9491   -1.5905 H   0  0  0  0  0  0  0  0  0  0  0  0
    0.9881   -2.1358   -0.5596 H   0  0  0  0  0  0  0  0  0  0  0  0
  1  2  1  0  0  0  0
  1  7  1  0  0  0  0
  1  8  1  0  0  0  0
  1  9  1  0  0  0  0
  2  3  1  0  0  0  0
  2 10  1  0  0  0  0
  2 11  1  0  0  0  0
  3  4  1  0  0  0  0
  3 12  1  0  0  0  0
  3 13  1  0  0  0  0
  4  5  2  0  0  0  0
  4 14  1  0  0  0  0
  5  6  1  0  0  0  0
  5 15  1  0  0  0  0
  6 16  1  0  0  0  0
  6 17  1  0  0  0  0
  6 18  1  0  0  0  0
M  END
> <grid_ids>
[(-165,), (-150,), (-135,), (-120,), (-105,), (-90,), (-75,), (-60,), (-45,), (-30,), (-15,), (0,), (15,), (30,), (45,), (60,), (75,), (90,), (105,), (120,), (135,), (150,), (165,), (180,)]

$$$$
