
  -OEChem-08192616593D

 18 17  0     0  0  0  0  0  0999 V2000
    1.9934    1.4931    0.4586 H   0  0  0  0  0  0  0  0  0  0  0  0
    1.0717    1.9468    0.0928 C   0  0  0  0  0  0  0  0  0  0  0  0
   -0.0463    1.2075    0.1560 C   0  0  0  0  0  0  0  0  0  0  0  0
    0.0403    0.2029    0.5740 H   0  0  0  0  0  0  0  0  0  0  0  0
   -1.4375    1.6041   -0.2620 C   0  0  0  0  0  0  0  0  0  0  0  0
   -1.4341    2.5718   -0.7738 H   0  0  0  0  0  0  0  0  0  0  0  0
   -1.8123    0.8731   -0.9928 H   0  0  0  0  0  0  0  0  0  0  0  0
   -2.4186    1.6577    0.9240 C   0  0  0  0  0  0  0  0  0  0  0  0
   -2.4096    0.6912    1.4441 H   0  0  0  0  0  0  0  0  0  0  0  0
   -2.0590    2.3983    1.6486 H   0  0  0  0  0  0  0  0  0  0  0  0
   -3.8497    1.9983    0.4942 C   0  0  0  0  0  0  0  0  0  0  0  0
   -4.5272    2.0346    1.3542 H   0  0  0  0  0  0  0  0  0  0  0  0
   -4.2400    1.2518   -0.2075 H   0  0  0  0  0  0  0  0  0  0  0  0
   -3.8913    2.9738   -0.0043 H   0  0  0  0  0  0  0  0  0  0  0  0
    1.2098    3.3559   -0.4235 C   0  0  0  0  0  0  0  0  0  0  0  0
    0.2479    3.8623   -0.5332 H   0  0  0  0  0  0  0  0  0  0  0  0
    1.8234    3.9549    0.2596 H   0  0  0  0  0  0  0  0  0  0  0  0
    1.7146    3.3723   -1.3981 H   0  0  0  0  0  0  0  0  0  0  0  0
  1  2  1  0  0  0  0
  2  3  2  0  0  0  0
  2 15  1  0  0  0  0
  3  4  1  0  0  0  0
  3  5  1  0  0  0  0
  5  6  1  0  0  0  0
  5  7  1  0  0  0  0
  5  8  1  0  0  0  0
  8  9  1  0  0  0  0
  8 10  1  0  0  0  0
  8 11  1  0  0  0  0
 11 12  1  0  0  0  0
 11 13  1  0  0  0  0
 11 14  1  0  0  0  0
 15 16  1  0  0  0  0
 15 17  1  0  0  0  0
 15 18  1  0  0  0  0
M  END
> <grid_ids>
[(-165,), (-150,), (-135,), (-120,), (-105,), (-90,), (-75,), (-60,), (-45,), (-30,), (-15,), (0,), (15,), (30,), (45,), (60,), (75,), (90,), (105,), (120,), (135,), (150,), (165,), (180,)]

$$$$
