
  -OEChem-08192616593D

 20 19  0     0  0  0  0  0  0999 V2000
   -0.7131   -0.7250   -0.2894 C   0  0  0  0  0  0  0  0  0  0  0  0
   -0.8106   -0.7337   -1.8210 C   0  0  0  0  0  0  0  0  0  0  0  0
   -1.8662   -1.7117   -2.3513 C   0  0  0  0  0  0  0  0  0  0  0  0
   -1.9525   -1.7477   -3.8811 C   0  0  0  0  0  0  0  0  0  0  0  0
   -3.0191   -2.7136   -4.4110 C   0  0  0  0  0  0  0  0  0  0  0  0
   -3.0952   -2.7435   -5.9418 C   0  0  0  0  0  0  0  0  0  0  0  0
   -0.1596    0.1474    0.0745 H   0  0  0  0  0  0  0  0  0  0  0  0
   -0.2239   -1.6289    0.0900 H   0  0  0  0  0  0  0  0  0  0  0  0
   -1.7119   -0.6781    0.1615 H   0  0  0  0  0  0  0  0  0  0  0  0
    0.1685   -0.9752   -2.2547 H   0  0  0  0  0  0  0  0  0  0  0  0
   -1.0588    0.2756   -2.1752 H   0  0  0  0  0  0  0  0  0  0  0  0
   -2.8468   -1.4386   -1.9376 H   0  0  0  0  0  0  0  0  0  0  0  0
   -1.6493   -2.7219   -1.9760 H   0  0  0  0  0  0  0  0  0  0  0  0
   -0.9735   -2.0282   -4.2941 H   0  0  0  0  0  0  0  0  0  0  0  0
   -2.1617   -0.7363   -4.2572 H   0  0  0  0  0  0  0  0  0  0  0  0
   -2.8106   -3.7239   -4.0346 H   0  0  0  0  0  0  0  0  0  0  0  0
   -3.9979   -2.4316   -4.0008 H   0  0  0  0  0  0  0  0  0  0  0  0
   -3.8645   -3.4403   -6.2922 H   0  0  0  0  0  0  0  0  0  0  0  0
   -3.3344   -1.7523   -6.3446 H   0  0  0  0  0  0  0  0  0  0  0  0
   -2.1391   -3.0549   -6.3785 H   0  0  0  0  0  0  0  0  0  0  0  0
  1  2  1  0  0  0  0
  1  7  1  0  0  0  0
  1  8  1  0  0  0  0
  1  9  1  0  0  0  0
  2  3  1  0  0  0  0
  2 10  1  0  0  0  0
  2 11  1  0  0  0  0
  3  4  1  0  0  0  0
  3 12  1  0  0  0  0
  3 13  1  0  0  0  0
  4  5  1  0  0  0  0
  4 14  1  0  0  0  0
  4 15  1  0  0  0  0
  5  6  1  0  0  0  0
  5 16  1  0  0  0  0
  5 17  1  0  0  0  0
  6 18  1  0  0  0  0
  6 19  1  0  0  0  0
  6 20  1  0  0  0  0
M  END
> <grid_ids>
[(-165,), (-150,), (-135,), (-120,), (-105,), (-90,), (-75,), (-60,), (-45,), (-30,), (-15,), (0,), (15,), (30,), (45,), (60,), (75,), (90,), (105,), (120,), (135,), (150,), (165,), (180,)]

$$$$
